version 2
run Hackathon114-0-20220721-16:02:03-9932
attr configname Hackathon114
attr datetime 20220721-16:02:03
attr experiment Hackathon114
attr inifile omnetpp.ini
attr iterationvars ""
attr iterationvarsf ""
attr measurement ""
attr network lte.simulations.Mode4.Highway
attr processid 9932
attr repetition 0
attr replication #0
attr resultdir results
attr runnumber 0
attr seedset 0
param *.car[*].d2dCapable true
param *.car[*].mode4D2D true
param **.amcMode "\"D2D\""
param *.car[*].applType "\"Mode4App\""
param *.car[*].appl.packetSize 190
param *.car[*].nicType "\"LteNicVUeMode4\""
param *.car[*].lteNic.d2dCapable true
param *.car[*].lteNic.pdcpRrc.ipBased false
param *.car[*].lteNic.rlc.ipBased false
param *.car[*].lteNic.mac.subchannelSize 16
param *.car[*].lteNic.mac.numSubchannels 3
param *.car[*].lteNic.mac.probResourceKeep 0.4
param *.car[*].lteNic.mac.useCBR false
param *.car[*].lteNic.mac.crLimit false
param *.car[*].lteNic.mac.rriLookup false
param *.car[*].lteNic.mac.dccMechanism false
param *.car[*].lteNic.mac.packetDropping false
param *.car[*].lteNic.mac.reselectAfter 1
param *.car[*].lteNic.mac.adjacencyPSCCHPSSCH true
param *.car[*].lteNic.rlc.um.scenario3gpp false
param *.car[*].lteNic.phy.subchannelSize 16
param *.car[*].lteNic.phy.numSubchannels 3
param *.car[*].lteNic.phy.selectionWindowStartingSubframe 1
param *.car[*].lteNic.phy.adjacencyPSCCHPSSCH true
param *.car[*].lteNic.phy.pStep 100
param *.car[*].lteNic.phy.thresholdRSSI 10
param *.car[*].ueTxPower 23
param *.car[*].lteNic.phy.d2dTxPower 23
param *.**.nic.lteNic.phy.usePropagationDelay true
param *.visualizer.mediumVisualizer.displaySignals true
param *.visualizer.physicalLinkVisualizer.displayLinks true
param *.visualizer.physicalLinkVisualizer.packetFilter "\"Mode4Data*\""
param **.usePreconfiguredTxParams true
param **.lteNic.mac.txConfig "xmldoc(\"sidelink_configuration.xml\")"
param **.coreDebug false
param **.routingRecorder.enabled false
param *.playgroundSizeX 2000000m
param *.playgroundSizeY 2000000m
param *.playgroundSizeZ 50m
param **.channelControl.pMax 10W
param **.channelControl.alpha 1.0
param **.channelControl.carrierFrequency 6000e+6Hz
param **.lteNic.phy.channelModel "xmldoc(\"config_channel.xml\")"
param **.feedbackComputation "xmldoc(\"config_channel.xml\")"
param **.rbAllocationType "\"localized\""
param **.feedbackType "\"ALLBANDS\""
param **.feedbackGeneratorType "\"IDEAL\""
param **.maxHarqRtx 0
param **.deployer.ruRange 50
param **.deployer.ruTxPower "\"50,50,50;\""
param **.deployer.antennaCws "\"2;\""
param **.deployer.numRbDl 51
param **.deployer.numRbUl 48
param **.numBands 48
param **.fbDelay 1
param *.veinsManager.moduleType "\"lte.corenetwork.nodes.cars.CarIPv6\""
param *.veinsManager.moduleName "\"car\""
param *.veinsManager.moduleDisplayString "\"\""
param *.veinsManager.launchConfig "xmldoc(\"highway/006vpm/highway.launchd.xml\")"
param *.veinsManager.updateInterval 0.1s
param *.veinsManager.firstStepAt 500s
param *.car[*].mobilityType "\"VeinsInetMobility\""
param **.deployer.positionUpdateInterval 0.01s

vector 0 Highway.car[0].lteNic.phy servingCell:vector ETV
attr source servingCell
attr title "ID of the serving eNodeB for the UE, vector"
attr unit ""
vector 1 Highway.car[0].lteNic.mac macNodeID:vector ETV
attr source macNodeID
attr title "Reports Mac NodeID to allow for trans to nodeID, vector"
vector 2 Highway.car[1].lteNic.phy servingCell:vector ETV
attr source servingCell
attr title "ID of the serving eNodeB for the UE, vector"
attr unit ""
vector 3 Highway.car[1].lteNic.mac macNodeID:vector ETV
attr source macNodeID
attr title "Reports Mac NodeID to allow for trans to nodeID, vector"
vector 4 Highway.car[2].lteNic.phy servingCell:vector ETV
attr source servingCell
attr title "ID of the serving eNodeB for the UE, vector"
attr unit ""
vector 5 Highway.car[2].lteNic.mac macNodeID:vector ETV
attr source macNodeID
attr title "Reports Mac NodeID to allow for trans to nodeID, vector"
vector 6 Highway.car[3].lteNic.phy servingCell:vector ETV
attr source servingCell
attr title "ID of the serving eNodeB for the UE, vector"
attr unit ""
vector 7 Highway.car[3].lteNic.mac macNodeID:vector ETV
attr source macNodeID
attr title "Reports Mac NodeID to allow for trans to nodeID, vector"
vector 8 Highway.car[4].lteNic.phy servingCell:vector ETV
attr source servingCell
attr title "ID of the serving eNodeB for the UE, vector"
attr unit ""
vector 9 Highway.car[4].lteNic.mac macNodeID:vector ETV
attr source macNodeID
attr title "Reports Mac NodeID to allow for trans to nodeID, vector"
vector 10 Highway.car[5].lteNic.phy servingCell:vector ETV
attr source servingCell
attr title "ID of the serving eNodeB for the UE, vector"
attr unit ""
vector 11 Highway.car[5].lteNic.mac macNodeID:vector ETV
attr source macNodeID
attr title "Reports Mac NodeID to allow for trans to nodeID, vector"
vector 12 Highway.car[6].lteNic.phy servingCell:vector ETV
attr source servingCell
attr title "ID of the serving eNodeB for the UE, vector"
attr unit ""
vector 13 Highway.car[6].lteNic.mac macNodeID:vector ETV
attr source macNodeID
attr title "Reports Mac NodeID to allow for trans to nodeID, vector"
vector 14 Highway.car[7].lteNic.phy servingCell:vector ETV
attr source servingCell
attr title "ID of the serving eNodeB for the UE, vector"
attr unit ""
vector 15 Highway.car[7].lteNic.mac macNodeID:vector ETV
attr source macNodeID
attr title "Reports Mac NodeID to allow for trans to nodeID, vector"
vector 16 Highway.car[8].lteNic.phy servingCell:vector ETV
attr source servingCell
attr title "ID of the serving eNodeB for the UE, vector"
attr unit ""
vector 17 Highway.car[8].lteNic.mac macNodeID:vector ETV
attr source macNodeID
attr title "Reports Mac NodeID to allow for trans to nodeID, vector"
vector 18 Highway.car[9].lteNic.phy servingCell:vector ETV
attr source servingCell
attr title "ID of the serving eNodeB for the UE, vector"
attr unit ""
vector 19 Highway.car[9].lteNic.mac macNodeID:vector ETV
attr source macNodeID
attr title "Reports Mac NodeID to allow for trans to nodeID, vector"
vector 20 Highway.car[10].lteNic.phy servingCell:vector ETV
attr source servingCell
attr title "ID of the serving eNodeB for the UE, vector"
attr unit ""
vector 21 Highway.car[10].lteNic.mac macNodeID:vector ETV
attr source macNodeID
attr title "Reports Mac NodeID to allow for trans to nodeID, vector"
vector 22 Highway.car[11].lteNic.phy servingCell:vector ETV
attr source servingCell
attr title "ID of the serving eNodeB for the UE, vector"
attr unit ""
vector 23 Highway.car[11].lteNic.mac macNodeID:vector ETV
attr source macNodeID
attr title "Reports Mac NodeID to allow for trans to nodeID, vector"
vector 24 Highway.car[12].lteNic.phy servingCell:vector ETV
attr source servingCell
attr title "ID of the serving eNodeB for the UE, vector"
attr unit ""
vector 25 Highway.car[12].lteNic.mac macNodeID:vector ETV
attr source macNodeID
attr title "Reports Mac NodeID to allow for trans to nodeID, vector"
vector 26 Highway.car[13].lteNic.phy servingCell:vector ETV
attr source servingCell
attr title "ID of the serving eNodeB for the UE, vector"
attr unit ""
vector 27 Highway.car[13].lteNic.mac macNodeID:vector ETV
attr source macNodeID
attr title "Reports Mac NodeID to allow for trans to nodeID, vector"
vector 28 Highway.car[14].lteNic.phy servingCell:vector ETV
attr source servingCell
attr title "ID of the serving eNodeB for the UE, vector"
attr unit ""
vector 29 Highway.car[14].lteNic.mac macNodeID:vector ETV
attr source macNodeID
attr title "Reports Mac NodeID to allow for trans to nodeID, vector"
vector 30 Highway.car[15].lteNic.phy servingCell:vector ETV
attr source servingCell
attr title "ID of the serving eNodeB for the UE, vector"
attr unit ""
vector 31 Highway.car[15].lteNic.mac macNodeID:vector ETV
attr source macNodeID
attr title "Reports Mac NodeID to allow for trans to nodeID, vector"
vector 32 Highway.car[16].lteNic.phy servingCell:vector ETV
attr source servingCell
attr title "ID of the serving eNodeB for the UE, vector"
attr unit ""
vector 33 Highway.car[16].lteNic.mac macNodeID:vector ETV
attr source macNodeID
attr title "Reports Mac NodeID to allow for trans to nodeID, vector"
vector 34 Highway.car[17].lteNic.phy servingCell:vector ETV
attr source servingCell
attr title "ID of the serving eNodeB for the UE, vector"
attr unit ""
vector 35 Highway.car[17].lteNic.mac macNodeID:vector ETV
attr source macNodeID
attr title "Reports Mac NodeID to allow for trans to nodeID, vector"
vector 36 Highway.car[18].lteNic.phy servingCell:vector ETV
attr source servingCell
attr title "ID of the serving eNodeB for the UE, vector"
attr unit ""
vector 37 Highway.car[18].lteNic.mac macNodeID:vector ETV
attr source macNodeID
attr title "Reports Mac NodeID to allow for trans to nodeID, vector"
vector 38 Highway.car[19].lteNic.phy servingCell:vector ETV
attr source servingCell
attr title "ID of the serving eNodeB for the UE, vector"
attr unit ""
vector 39 Highway.car[19].lteNic.mac macNodeID:vector ETV
attr source macNodeID
attr title "Reports Mac NodeID to allow for trans to nodeID, vector"
vector 40 Highway.car[20].lteNic.phy servingCell:vector ETV
attr source servingCell
attr title "ID of the serving eNodeB for the UE, vector"
attr unit ""
vector 41 Highway.car[20].lteNic.mac macNodeID:vector ETV
attr source macNodeID
attr title "Reports Mac NodeID to allow for trans to nodeID, vector"
vector 42 Highway.car[21].lteNic.phy servingCell:vector ETV
attr source servingCell
attr title "ID of the serving eNodeB for the UE, vector"
attr unit ""
vector 43 Highway.car[21].lteNic.mac macNodeID:vector ETV
attr source macNodeID
attr title "Reports Mac NodeID to allow for trans to nodeID, vector"
vector 44 Highway.car[22].lteNic.phy servingCell:vector ETV
attr source servingCell
attr title "ID of the serving eNodeB for the UE, vector"
attr unit ""
vector 45 Highway.car[22].lteNic.mac macNodeID:vector ETV
attr source macNodeID
attr title "Reports Mac NodeID to allow for trans to nodeID, vector"
vector 46 Highway.car[23].lteNic.phy servingCell:vector ETV
attr source servingCell
attr title "ID of the serving eNodeB for the UE, vector"
attr unit ""
vector 47 Highway.car[23].lteNic.mac macNodeID:vector ETV
attr source macNodeID
attr title "Reports Mac NodeID to allow for trans to nodeID, vector"
vector 48 Highway.car[24].lteNic.phy servingCell:vector ETV
attr source servingCell
attr title "ID of the serving eNodeB for the UE, vector"
attr unit ""
vector 49 Highway.car[24].lteNic.mac macNodeID:vector ETV
attr source macNodeID
attr title "Reports Mac NodeID to allow for trans to nodeID, vector"
vector 50 Highway.car[25].lteNic.phy servingCell:vector ETV
attr source servingCell
attr title "ID of the serving eNodeB for the UE, vector"
attr unit ""
vector 51 Highway.car[25].lteNic.mac macNodeID:vector ETV
attr source macNodeID
attr title "Reports Mac NodeID to allow for trans to nodeID, vector"
vector 52 Highway.car[26].lteNic.phy servingCell:vector ETV
attr source servingCell
attr title "ID of the serving eNodeB for the UE, vector"
attr unit ""
vector 53 Highway.car[26].lteNic.mac macNodeID:vector ETV
attr source macNodeID
attr title "Reports Mac NodeID to allow for trans to nodeID, vector"
vector 54 Highway.car[27].lteNic.phy servingCell:vector ETV
attr source servingCell
attr title "ID of the serving eNodeB for the UE, vector"
attr unit ""
vector 55 Highway.car[27].lteNic.mac macNodeID:vector ETV
attr source macNodeID
attr title "Reports Mac NodeID to allow for trans to nodeID, vector"
vector 56 Highway.car[28].lteNic.phy servingCell:vector ETV
attr source servingCell
attr title "ID of the serving eNodeB for the UE, vector"
attr unit ""
vector 57 Highway.car[28].lteNic.mac macNodeID:vector ETV
attr source macNodeID
attr title "Reports Mac NodeID to allow for trans to nodeID, vector"
vector 58 Highway.car[29].lteNic.phy servingCell:vector ETV
attr source servingCell
attr title "ID of the serving eNodeB for the UE, vector"
attr unit ""
vector 59 Highway.car[29].lteNic.mac macNodeID:vector ETV
attr source macNodeID
attr title "Reports Mac NodeID to allow for trans to nodeID, vector"
vector 60 Highway.car[0].lteNic.phy posX:vector ETV
attr source posX
attr title "X position of node (at reception time), vector"
vector 61 Highway.car[0].lteNic.phy posY:vector ETV
attr source posY
attr title "Y position of node (at reception time), vector"
vector 62 Highway.car[1].lteNic.phy posX:vector ETV
attr source posX
attr title "X position of node (at reception time), vector"
vector 63 Highway.car[1].lteNic.phy posY:vector ETV
attr source posY
attr title "Y position of node (at reception time), vector"
vector 64 Highway.car[2].lteNic.phy posX:vector ETV
attr source posX
attr title "X position of node (at reception time), vector"
vector 65 Highway.car[2].lteNic.phy posY:vector ETV
attr source posY
attr title "Y position of node (at reception time), vector"
vector 66 Highway.car[3].lteNic.phy posX:vector ETV
attr source posX
attr title "X position of node (at reception time), vector"
vector 67 Highway.car[3].lteNic.phy posY:vector ETV
attr source posY
attr title "Y position of node (at reception time), vector"
vector 68 Highway.car[4].lteNic.phy posX:vector ETV
attr source posX
attr title "X position of node (at reception time), vector"
vector 69 Highway.car[4].lteNic.phy posY:vector ETV
attr source posY
attr title "Y position of node (at reception time), vector"
vector 70 Highway.car[5].lteNic.phy posX:vector ETV
attr source posX
attr title "X position of node (at reception time), vector"
vector 71 Highway.car[5].lteNic.phy posY:vector ETV
attr source posY
attr title "Y position of node (at reception time), vector"
vector 72 Highway.car[6].lteNic.phy posX:vector ETV
attr source posX
attr title "X position of node (at reception time), vector"
vector 73 Highway.car[6].lteNic.phy posY:vector ETV
attr source posY
attr title "Y position of node (at reception time), vector"
vector 74 Highway.car[7].lteNic.phy posX:vector ETV
attr source posX
attr title "X position of node (at reception time), vector"
vector 75 Highway.car[7].lteNic.phy posY:vector ETV
attr source posY
attr title "Y position of node (at reception time), vector"
vector 76 Highway.car[8].lteNic.phy posX:vector ETV
attr source posX
attr title "X position of node (at reception time), vector"
vector 77 Highway.car[8].lteNic.phy posY:vector ETV
attr source posY
attr title "Y position of node (at reception time), vector"
vector 78 Highway.car[9].lteNic.phy posX:vector ETV
attr source posX
attr title "X position of node (at reception time), vector"
vector 79 Highway.car[9].lteNic.phy posY:vector ETV
attr source posY
attr title "Y position of node (at reception time), vector"
vector 80 Highway.car[10].lteNic.phy posX:vector ETV
attr source posX
attr title "X position of node (at reception time), vector"
vector 81 Highway.car[10].lteNic.phy posY:vector ETV
attr source posY
attr title "Y position of node (at reception time), vector"
vector 82 Highway.car[11].lteNic.phy posX:vector ETV
attr source posX
attr title "X position of node (at reception time), vector"
vector 83 Highway.car[11].lteNic.phy posY:vector ETV
attr source posY
attr title "Y position of node (at reception time), vector"
vector 84 Highway.car[12].lteNic.phy posX:vector ETV
attr source posX
attr title "X position of node (at reception time), vector"
vector 85 Highway.car[12].lteNic.phy posY:vector ETV
attr source posY
attr title "Y position of node (at reception time), vector"
vector 86 Highway.car[13].lteNic.phy posX:vector ETV
attr source posX
attr title "X position of node (at reception time), vector"
vector 87 Highway.car[13].lteNic.phy posY:vector ETV
attr source posY
attr title "Y position of node (at reception time), vector"
vector 88 Highway.car[13].lteNic.phy cbr:vector ETV
attr source cbr
attr title "Channel Busy Ratio, vector"
vector 89 Highway.car[13].lteNic.phy cbrPscch:vector ETV
attr source cbrPscch
attr title "Channel Busy Ratio for PSCCH, vector"
vector 90 Highway.car[14].lteNic.phy posX:vector ETV
attr source posX
attr title "X position of node (at reception time), vector"
vector 91 Highway.car[14].lteNic.phy posY:vector ETV
attr source posY
attr title "Y position of node (at reception time), vector"
vector 92 Highway.car[15].lteNic.phy posX:vector ETV
attr source posX
attr title "X position of node (at reception time), vector"
vector 93 Highway.car[15].lteNic.phy posY:vector ETV
attr source posY
attr title "Y position of node (at reception time), vector"
vector 94 Highway.car[16].lteNic.phy posX:vector ETV
attr source posX
attr title "X position of node (at reception time), vector"
vector 95 Highway.car[16].lteNic.phy posY:vector ETV
attr source posY
attr title "Y position of node (at reception time), vector"
vector 96 Highway.car[17].lteNic.phy posX:vector ETV
attr source posX
attr title "X position of node (at reception time), vector"
vector 97 Highway.car[17].lteNic.phy posY:vector ETV
attr source posY
attr title "Y position of node (at reception time), vector"
vector 98 Highway.car[18].lteNic.phy posX:vector ETV
attr source posX
attr title "X position of node (at reception time), vector"
vector 99 Highway.car[18].lteNic.phy posY:vector ETV
attr source posY
attr title "Y position of node (at reception time), vector"
vector 100 Highway.car[19].lteNic.phy posX:vector ETV
attr source posX
attr title "X position of node (at reception time), vector"
vector 101 Highway.car[19].lteNic.phy posY:vector ETV
attr source posY
attr title "Y position of node (at reception time), vector"
vector 102 Highway.car[20].lteNic.phy posX:vector ETV
attr source posX
attr title "X position of node (at reception time), vector"
vector 103 Highway.car[20].lteNic.phy posY:vector ETV
attr source posY
attr title "Y position of node (at reception time), vector"
vector 104 Highway.car[21].lteNic.phy posX:vector ETV
attr source posX
attr title "X position of node (at reception time), vector"
vector 105 Highway.car[21].lteNic.phy posY:vector ETV
attr source posY
attr title "Y position of node (at reception time), vector"
vector 106 Highway.car[22].lteNic.phy posX:vector ETV
attr source posX
attr title "X position of node (at reception time), vector"
vector 107 Highway.car[22].lteNic.phy posY:vector ETV
attr source posY
attr title "Y position of node (at reception time), vector"
vector 108 Highway.car[23].lteNic.phy posX:vector ETV
attr source posX
attr title "X position of node (at reception time), vector"
vector 109 Highway.car[23].lteNic.phy posY:vector ETV
attr source posY
attr title "Y position of node (at reception time), vector"
vector 110 Highway.car[24].lteNic.phy posX:vector ETV
attr source posX
attr title "X position of node (at reception time), vector"
vector 111 Highway.car[24].lteNic.phy posY:vector ETV
attr source posY
attr title "Y position of node (at reception time), vector"
vector 112 Highway.car[25].lteNic.phy posX:vector ETV
attr source posX
attr title "X position of node (at reception time), vector"
vector 113 Highway.car[25].lteNic.phy posY:vector ETV
attr source posY
attr title "Y position of node (at reception time), vector"
vector 114 Highway.car[26].lteNic.phy posX:vector ETV
attr source posX
attr title "X position of node (at reception time), vector"
vector 115 Highway.car[26].lteNic.phy posY:vector ETV
attr source posY
attr title "Y position of node (at reception time), vector"
vector 116 Highway.car[27].lteNic.phy posX:vector ETV
attr source posX
attr title "X position of node (at reception time), vector"
vector 117 Highway.car[27].lteNic.phy posY:vector ETV
attr source posY
attr title "Y position of node (at reception time), vector"
vector 118 Highway.car[28].lteNic.phy posX:vector ETV
attr source posX
attr title "X position of node (at reception time), vector"
vector 119 Highway.car[28].lteNic.phy posY:vector ETV
attr source posY
attr title "Y position of node (at reception time), vector"
vector 120 Highway.car[29].lteNic.phy posX:vector ETV
attr source posX
attr title "X position of node (at reception time), vector"
vector 121 Highway.car[29].lteNic.phy posY:vector ETV
attr source posY
attr title "Y position of node (at reception time), vector"
vector 122 Highway.car[13].lteNic.mac receivedPacketFromLowerLayer:vector(packetBytes) ETV
attr interpolationmode none
attr source receivedPacketFromLowerLayer
vector 123 Highway.car[13].lteNic.mac sentPacketToUpperLayer:vector(packetBytes) ETV
attr interpolationmode none
attr source sentPacketToUpperLayer
vector 124 Highway.car[13].lteNic.pdcpRrc sentPacketToUpperLayer:vector(packetBytes) ETV
attr interpolationmode none
attr source sentPacketToUpperLayer
vector 125 Highway.car[13].appl cbr:vector ETV
attr source cbr
attr title "Channel Busy Ratio, vector"
attr unit ""
vector 126 Highway.car[26].appl sentMsg:vector ETV
attr source sentMsg
attr title "Messages sent, vector"
attr unit ""
0	2	500	0
1	2	500	1025
2	2	500	0
3	2	500	1026
4	2	500	0
5	2	500	1027
6	2	500	0
7	2	500	1028
8	2	500	0
9	2	500	1029
10	2	500	0
11	2	500	1030
12	2	500	0
13	2	500	1031
14	2	500	0
15	2	500	1032
16	2	500	0
17	2	500	1033
18	2	500	0
19	2	500	1034
20	2	500	0
21	2	500	1035
22	2	500	0
23	2	500	1036
24	2	500	0
25	2	500	1037
26	2	500	0
27	2	500	1038
28	2	500	0
29	2	500	1039
30	2	500	0
31	2	500	1040
32	2	500	0
33	2	500	1041
34	2	500	0
35	2	500	1042
36	2	500	0
37	2	500	1043
38	2	500	0
39	2	500	1044
40	2	500	0
41	2	500	1045
42	2	500	0
43	2	500	1046
44	2	500	0
45	2	500	1047
46	2	500	0
47	2	500	1048
48	2	500	0
49	2	500	1049
50	2	500	0
51	2	500	1050
52	2	500	0
53	2	500	1051
54	2	500	0
55	2	500	1052
56	2	500	0
57	2	500	1053
58	2	500	0
59	2	500	1054
60	33	500.001	1648.5827173847
60	98	500.002	1648.5827173847
60	158	500.003	1648.5827173847
60	218	500.004	1648.5827173847
60	278	500.005	1648.5827173847
60	338	500.006	1648.5827173847
60	398	500.007	1648.5827173847
60	459	500.008	1648.5827173847
61	33	500.001	73
61	98	500.002	73
61	158	500.003	73
61	218	500.004	73
61	278	500.005	73
61	338	500.006	73
61	398	500.007	73
61	459	500.008	73
62	34	500.001	858.03092034351
62	99	500.002	858.03092034351
62	159	500.003	858.03092034351
62	219	500.004	858.03092034351
62	279	500.005	858.03092034351
62	339	500.006	858.03092034351
62	399	500.007	858.03092034351
62	460	500.008	858.03092034351
63	34	500.001	69
63	99	500.002	69
63	159	500.003	69
63	219	500.004	69
63	279	500.005	69
63	339	500.006	69
63	399	500.007	69
63	460	500.008	69
64	35	500.001	1571.3193181251
64	100	500.002	1571.3193181251
64	160	500.003	1571.3193181251
64	220	500.004	1571.3193181251
64	280	500.005	1571.3193181251
64	340	500.006	1571.3193181251
64	400	500.007	1571.3193181251
64	461	500.008	1571.3193181251
65	35	500.001	69
65	100	500.002	69
65	160	500.003	69
65	220	500.004	69
65	280	500.005	69
65	340	500.006	69
65	400	500.007	69
65	461	500.008	69
66	36	500.001	857.33708933425
66	101	500.002	857.33708933425
66	161	500.003	857.33708933425
66	221	500.004	857.33708933425
66	281	500.005	857.33708933425
66	341	500.006	857.33708933425
66	401	500.007	857.33708933425
66	462	500.008	857.33708933425
67	36	500.001	85
67	101	500.002	85
67	161	500.003	85
67	221	500.004	85
67	281	500.005	85
67	341	500.006	85
67	401	500.007	85
67	462	500.008	85
68	37	500.001	1179.1921529767
68	102	500.002	1179.1921529767
68	162	500.003	1179.1921529767
68	222	500.004	1179.1921529767
68	282	500.005	1179.1921529767
68	342	500.006	1179.1921529767
68	402	500.007	1179.1921529767
68	463	500.008	1179.1921529767
69	37	500.001	81
69	102	500.002	81
69	162	500.003	81
69	222	500.004	81
69	282	500.005	81
69	342	500.006	81
69	402	500.007	81
69	463	500.008	81
70	38	500.001	725.33812106173
70	103	500.002	725.33812106173
70	163	500.003	725.33812106173
70	223	500.004	725.33812106173
70	283	500.005	725.33812106173
70	343	500.006	725.33812106173
70	403	500.007	725.33812106173
70	464	500.008	725.33812106173
71	38	500.001	77
71	103	500.002	77
71	163	500.003	77
71	223	500.004	77
71	283	500.005	77
71	343	500.006	77
71	403	500.007	77
71	464	500.008	77
72	39	500.001	1889.3915485133
72	104	500.002	1889.3915485133
72	164	500.003	1889.3915485133
72	224	500.004	1889.3915485133
72	284	500.005	1889.3915485133
72	344	500.006	1889.3915485133
72	404	500.007	1889.3915485133
72	465	500.008	1889.3915485133
73	39	500.001	65
73	104	500.002	65
73	164	500.003	65
73	224	500.004	65
73	284	500.005	65
73	344	500.006	65
73	404	500.007	65
73	465	500.008	65
74	40	500.001	622.81764393048
74	105	500.002	622.81764393048
74	165	500.003	622.81764393048
74	225	500.004	622.81764393048
74	285	500.005	622.81764393048
74	345	500.006	622.81764393048
74	405	500.007	622.81764393048
74	466	500.008	622.81764393048
75	40	500.001	77
75	105	500.002	77
75	165	500.003	77
75	225	500.004	77
75	285	500.005	77
75	345	500.006	77
75	405	500.007	77
75	466	500.008	77
76	41	500.001	1993.8148897506
76	106	500.002	1993.8148897506
76	166	500.003	1993.8148897506
76	226	500.004	1993.8148897506
76	286	500.005	1993.8148897506
76	346	500.006	1993.8148897506
76	406	500.007	1993.8148897506
76	467	500.008	1993.8148897506
77	41	500.001	65
77	106	500.002	65
77	166	500.003	65
77	226	500.004	65
77	286	500.005	65
77	346	500.006	65
77	406	500.007	65
77	467	500.008	65
78	42	500.001	1230.2542925985
78	107	500.002	1230.2542925985
78	167	500.003	1230.2542925985
78	227	500.004	1230.2542925985
78	287	500.005	1230.2542925985
78	347	500.006	1230.2542925985
78	407	500.007	1230.2542925985
78	468	500.008	1230.2542925985
79	42	500.001	85
79	107	500.002	85
79	167	500.003	85
79	227	500.004	85
79	287	500.005	85
79	347	500.006	85
79	407	500.007	85
79	468	500.008	85
80	43	500.001	1992.6967882282
80	108	500.002	1992.6967882282
80	168	500.003	1992.6967882282
80	228	500.004	1992.6967882282
80	288	500.005	1992.6967882282
80	348	500.006	1992.6967882282
80	408	500.007	1992.6967882282
80	469	500.008	1992.6967882282
81	43	500.001	81
81	108	500.002	81
81	168	500.003	81
81	228	500.004	81
81	288	500.005	81
81	348	500.006	81
81	408	500.007	81
81	469	500.008	81
82	44	500.001	678.69876587853
82	109	500.002	678.69876587853
82	169	500.003	678.69876587853
82	229	500.004	678.69876587853
82	289	500.005	678.69876587853
82	349	500.006	678.69876587853
82	409	500.007	678.69876587853
82	470	500.008	678.69876587853
83	44	500.001	85
83	109	500.002	85
83	169	500.003	85
83	229	500.004	85
83	289	500.005	85
83	349	500.006	85
83	409	500.007	85
83	470	500.008	85
84	45	500.001	1264.0681827582
84	110	500.002	1264.0681827582
84	170	500.003	1264.0681827582
84	230	500.004	1264.0681827582
84	290	500.005	1264.0681827582
84	350	500.006	1264.0681827582
84	410	500.007	1264.0681827582
84	471	500.008	1264.0681827582
85	45	500.001	65
85	110	500.002	65
85	170	500.003	65
85	230	500.004	65
85	290	500.005	65
85	350	500.006	65
85	410	500.007	65
85	471	500.008	65
86	46	500.001	1900.1301903268
86	111	500.002	1900.1301903268
86	171	500.003	1900.1301903268
86	231	500.004	1900.1301903268
86	291	500.005	1900.1301903268
86	351	500.006	1900.1301903268
86	411	500.007	1900.1301903268
86	472	500.008	1900.1301903268
87	46	500.001	81
87	111	500.002	81
87	171	500.003	81
87	231	500.004	81
87	291	500.005	81
87	351	500.006	81
87	411	500.007	81
87	472	500.008	81
88	46	500.001	0
89	46	500.001	0
90	47	500.001	841.87698942519
90	112	500.002	841.87698942519
90	172	500.003	841.87698942519
90	232	500.004	841.87698942519
90	292	500.005	841.87698942519
90	352	500.006	841.87698942519
90	412	500.007	841.87698942519
90	473	500.008	841.87698942519
91	47	500.001	65
91	112	500.002	65
91	172	500.003	65
91	232	500.004	65
91	292	500.005	65
91	352	500.006	65
91	412	500.007	65
91	473	500.008	65
92	48	500.001	1756.6715716193
92	113	500.002	1756.6715716193
92	173	500.003	1756.6715716193
92	233	500.004	1756.6715716193
92	293	500.005	1756.6715716193
92	353	500.006	1756.6715716193
92	413	500.007	1756.6715716193
92	474	500.008	1756.6715716193
93	48	500.001	81
93	113	500.002	81
93	173	500.003	81
93	233	500.004	81
93	293	500.005	81
93	353	500.006	81
93	413	500.007	81
93	474	500.008	81
94	49	500.001	1282.7456678744
94	114	500.002	1282.7456678744
94	174	500.003	1282.7456678744
94	234	500.004	1282.7456678744
94	294	500.005	1282.7456678744
94	354	500.006	1282.7456678744
94	414	500.007	1282.7456678744
94	475	500.008	1282.7456678744
95	49	500.001	81
95	114	500.002	81
95	174	500.003	81
95	234	500.004	81
95	294	500.005	81
95	354	500.006	81
95	414	500.007	81
95	475	500.008	81
96	50	500.001	570.28645773947
96	115	500.002	570.28645773947
96	175	500.003	570.28645773947
96	235	500.004	570.28645773947
96	295	500.005	570.28645773947
96	355	500.006	570.28645773947
96	415	500.007	570.28645773947
96	476	500.008	570.28645773947
97	50	500.001	85
97	115	500.002	85
97	175	500.003	85
97	235	500.004	85
97	295	500.005	85
97	355	500.006	85
97	415	500.007	85
97	476	500.008	85
98	51	500.001	1002.3689404153
98	116	500.002	1002.3689404153
98	176	500.003	1002.3689404153
98	236	500.004	1002.3689404153
98	296	500.005	1002.3689404153
98	356	500.006	1002.3689404153
98	416	500.007	1002.3689404153
98	477	500.008	1002.3689404153
99	51	500.001	81
99	116	500.002	81
99	176	500.003	81
99	236	500.004	81
99	296	500.005	81
99	356	500.006	81
99	416	500.007	81
99	477	500.008	81
100	52	500.001	872.18018029375
100	117	500.002	872.18018029375
100	177	500.003	872.18018029375
100	237	500.004	872.18018029375
100	297	500.005	872.18018029375
100	357	500.006	872.18018029375
100	417	500.007	872.18018029375
100	478	500.008	872.18018029375
101	52	500.001	81
101	117	500.002	81
101	177	500.003	81
101	237	500.004	81
101	297	500.005	81
101	357	500.006	81
101	417	500.007	81
101	478	500.008	81
102	53	500.001	1117.7609147336
102	118	500.002	1117.7609147336
102	178	500.003	1117.7609147336
102	238	500.004	1117.7609147336
102	298	500.005	1117.7609147336
102	358	500.006	1117.7609147336
102	418	500.007	1117.7609147336
102	479	500.008	1117.7609147336
103	53	500.001	77
103	118	500.002	77
103	178	500.003	77
103	238	500.004	77
103	298	500.005	77
103	358	500.006	77
103	418	500.007	77
103	479	500.008	77
104	54	500.001	1280.1512156848
104	119	500.002	1280.1512156848
104	179	500.003	1280.1512156848
104	239	500.004	1280.1512156848
104	299	500.005	1280.1512156848
104	359	500.006	1280.1512156848
104	419	500.007	1280.1512156848
104	480	500.008	1280.1512156848
105	54	500.001	77
105	119	500.002	77
105	179	500.003	77
105	239	500.004	77
105	299	500.005	77
105	359	500.006	77
105	419	500.007	77
105	480	500.008	77
106	55	500.001	909.11969999409
106	120	500.002	909.11969999409
106	180	500.003	909.11969999409
106	240	500.004	909.11969999409
106	300	500.005	909.11969999409
106	360	500.006	909.11969999409
106	420	500.007	909.11969999409
106	481	500.008	909.11969999409
107	55	500.001	77
107	120	500.002	77
107	180	500.003	77
107	240	500.004	77
107	300	500.005	77
107	360	500.006	77
107	420	500.007	77
107	481	500.008	77
108	56	500.001	1034.0096075248
108	121	500.002	1034.0096075248
108	181	500.003	1034.0096075248
108	241	500.004	1034.0096075248
108	301	500.005	1034.0096075248
108	361	500.006	1034.0096075248
108	421	500.007	1034.0096075248
108	482	500.008	1034.0096075248
109	56	500.001	65
109	121	500.002	65
109	181	500.003	65
109	241	500.004	65
109	301	500.005	65
109	361	500.006	65
109	421	500.007	65
109	482	500.008	65
110	57	500.001	946.34561029703
110	122	500.002	946.34561029703
110	182	500.003	946.34561029703
110	242	500.004	946.34561029703
110	302	500.005	946.34561029703
110	362	500.006	946.34561029703
110	422	500.007	946.34561029703
110	483	500.008	946.34561029703
111	57	500.001	85
111	122	500.002	85
111	182	500.003	85
111	242	500.004	85
111	302	500.005	85
111	362	500.006	85
111	422	500.007	85
111	483	500.008	85
112	58	500.001	1660.8286367275
112	123	500.002	1660.8286367275
112	183	500.003	1660.8286367275
112	243	500.004	1660.8286367275
112	303	500.005	1660.8286367275
112	363	500.006	1660.8286367275
112	423	500.007	1660.8286367275
112	484	500.008	1660.8286367275
113	58	500.001	69
113	123	500.002	69
113	183	500.003	69
113	243	500.004	69
113	303	500.005	69
113	363	500.006	69
113	423	500.007	69
113	484	500.008	69
114	59	500.001	1960.1827637689
114	124	500.002	1960.1827637689
114	184	500.003	1960.1827637689
114	244	500.004	1960.1827637689
114	304	500.005	1960.1827637689
114	364	500.006	1960.1827637689
114	424	500.007	1960.1827637689
115	59	500.001	85
115	124	500.002	85
115	184	500.003	85
115	244	500.004	85
115	304	500.005	85
115	364	500.006	85
115	424	500.007	85
116	60	500.001	1726.5581555649
116	125	500.002	1726.5581555649
116	185	500.003	1726.5581555649
116	245	500.004	1726.5581555649
116	305	500.005	1726.5581555649
116	365	500.006	1726.5581555649
116	425	500.007	1726.5581555649
117	60	500.001	65
117	125	500.002	65
117	185	500.003	65
117	245	500.004	65
117	305	500.005	65
117	365	500.006	65
117	425	500.007	65
118	61	500.001	1430.2203596499
118	126	500.002	1430.2203596499
118	186	500.003	1430.2203596499
118	246	500.004	1430.2203596499
118	306	500.005	1430.2203596499
118	366	500.006	1430.2203596499
118	426	500.007	1430.2203596499
119	61	500.001	65
119	126	500.002	65
119	186	500.003	65
119	246	500.004	65
119	306	500.005	65
119	366	500.006	65
119	426	500.007	65
120	62	500.001	687.88532407619
120	127	500.002	687.88532407619
120	187	500.003	687.88532407619
120	247	500.004	687.88532407619
120	307	500.005	687.88532407619
120	367	500.006	687.88532407619
120	427	500.007	687.88532407619
121	62	500.001	81
121	127	500.002	81
121	187	500.003	81
121	247	500.004	81
121	307	500.005	81
121	367	500.006	81
121	427	500.007	81
122	63	500.001	0
123	63	500.001	0
124	66	500.001	0
125	67	500.001	0
126	458	500.008	1
vector 127 Highway.car[26].lteNic.pdcpRrc receivedPacketFromUpperLayer:vector(packetBytes) ETV
attr interpolationmode none
attr source receivedPacketFromUpperLayer
vector 128 Highway.car[26].lteNic.pdcpRrc sentPacketToLowerLayer:vector(packetBytes) ETV
attr interpolationmode none
attr source sentPacketToLowerLayer
vector 129 Highway.car[26].lteNic.mac resourceReselectionCounter:vector ETV
attr source resourceReselectionCounter
attr title "ResourceReselectionCounter selectedNumber of transmissions, vector"
vector 130 Highway.car[26].lteNic.mac sentPacketToLowerLayer:vector(packetBytes) ETV
attr interpolationmode none
attr source sentPacketToLowerLayer
vector 131 Highway.car[26].lteNic.mac grantRequests:vector ETV
attr source grantRequests
attr title "Total number of requested grants, vector"
vector 132 Highway.car[26].lteNic.mac receivedPacketFromUpperLayer:vector(packetBytes) ETV
attr interpolationmode none
attr source receivedPacketFromUpperLayer
vector 133 Highway.car[26].lteNic.mac receivedPacketFromLowerLayer:vector(packetBytes) ETV
attr interpolationmode none
attr source receivedPacketFromLowerLayer
vector 134 Highway.car[26].lteNic.mac grantStartTime:vector ETV
attr source grantStartTime
attr title "Grant StartTime, vector"
vector 135 Highway.car[26].lteNic.mac selectedSubchannelIndex:vector ETV
attr source selectedSubchannelIndex
attr title "SelectedSubchannelIndex, vector"
vector 136 Highway.car[26].lteNic.mac selectedNumSubchannels:vector ETV
attr source selectedNumSubchannels
attr title "SelectedNumSubchannels, vector"
vector 137 Highway.car[26].lteNic.mac takingReservedGrant:vector ETV
attr source takingReservedGrant
attr title "takingReservedGrant, vector"
vector 138 Highway.car[26].lteNic.mac sentPacketToUpperLayer:vector(packetBytes) ETV
attr interpolationmode none
attr source sentPacketToUpperLayer
vector 139 Highway.car[26].lteNic.mac selectedMCS:vector ETV
attr source selectedMCS
attr title "MCS selected for transmission, vector"
vector 140 Highway.car[26].lteNic.phy sciSent:vector ETV
attr source sciSent
attr title "Number of sci sent, vector"
vector 141 Highway.car[26].lteNic.phy subchannelSent:vector ETV
attr source subchannelSent
attr title "starting Subchannel used for sent message, vector"
vector 142 Highway.car[26].lteNic.phy subchannelsUsedToSend:vector ETV
attr source subchannelsUsedToSend
attr title "Number of subchannels used for message, vector"
vector 143 Highway.car[26].lteNic.phy tbSent:vector ETV
attr source tbSent
attr title "Number of tb sent, vector"
vector 144 Highway.car[0].lteNic.phy txRxDistanceSCI:vector ETV
attr source txRxDistanceSCI
attr title "Distance between transmitter and receiver, vector"
vector 145 Highway.car[0].lteNic.phy senderID:vector ETV
attr source senderID
attr title "ID of node who sent message, vector"
vector 146 Highway.car[0].lteNic.phy sciReceived:vector ETV
attr source sciReceived
attr title "Number of received sci, vector"
vector 147 Highway.car[0].lteNic.phy sciUnsensed:vector ETV
attr source sciUnsensed
attr title "Number of failed SCIs due to RSRP below threshold, vector"
vector 148 Highway.car[0].lteNic.phy sciDecoded:vector ETV
attr source sciDecoded
attr title "Number of sci successfully decoded, vector"
vector 149 Highway.car[0].lteNic.phy sciFailedDueToProp:vector ETV
attr source sciFailedDueToProp
attr title "Number of failed SCIs due to propogation, vector"
vector 150 Highway.car[0].lteNic.phy sciFailedDueToInterference:vector ETV
attr source sciFailedDueToInterference
attr title "Number of failed SCIs due to interference, vector"
vector 151 Highway.car[0].lteNic.phy sciFailedHalfDuplex:vector ETV
attr source sciFailedHalfDuplex
attr title "Number of failed SCIs due to Half Duplex, vector"
vector 152 Highway.car[0].lteNic.phy subchannelReceived:vector ETV
attr source subchannelReceived
attr title "Initial Subchannel on which packet is received, vector"
vector 153 Highway.car[0].lteNic.phy subchannelsUsed:vector ETV
attr source subchannelsUsed
attr title "Number of Subchannels used for the received packet, vector"
vector 154 Highway.car[0].lteNic.phy txRxDistanceTB:vector ETV
attr source txRxDistanceTB
attr title "Distance between transmitter and receiver, vector"
vector 155 Highway.car[0].lteNic.phy tbReceived:vector ETV
attr source tbReceived
attr title "Number of tb received, vector"
vector 156 Highway.car[0].lteNic.phy tbDecoded:vector ETV
attr source tbDecoded
attr title "Number of tb Decoded, vector"
vector 157 Highway.car[0].lteNic.phy tbFailedDueToNoSCI:vector ETV
attr source tbFailedDueToNoSCI
attr title "Number of tb not decoded due to no SCI, vector"
vector 158 Highway.car[0].lteNic.phy tbFailedDueToProp:vector ETV
attr source tbFailedDueToProp
attr title "Number of failed TBs due to propogation, vector"
vector 159 Highway.car[0].lteNic.phy tbFailedDueToInterference:vector ETV
attr source tbFailedDueToInterference
attr title "Number of failed TBs due to interference, vector"
vector 160 Highway.car[0].lteNic.phy tbFailedButSCIReceived:vector ETV
attr source tbFailedButSCIReceived
attr title "Number of failed TBs with a decoded SCI, vector"
vector 161 Highway.car[0].lteNic.phy tbFailedHalfDuplex:vector ETV
attr source tbFailedHalfDuplex
attr title "Number of failed TBs due to Half Duplex, vector"
vector 162 Highway.car[0].lteNic.phy periodic:vector ETV
attr source periodic
attr title "Identifies traffic as periodic or aperiodic, vector"
vector 163 Highway.car[0].lteNic.phy tbFailedDueToPropIgnoreSCI:vector ETV
attr source tbFailedDueToPropIgnoreSCI
attr title "Number of failed TBs due to propogation, vector"
vector 164 Highway.car[0].lteNic.phy tbFailedDueToInterferenceIgnoreSCI:vector ETV
attr source tbFailedDueToInterferenceIgnoreSCI
attr title "Number of failed TBs due to interference, vector"
vector 165 Highway.car[0].lteNic.phy tbDecodedIgnoreSCI:vector ETV
attr source tbDecodedIgnoreSCI
attr title "Number of failed TBs due to interference, vector"
vector 166 Highway.car[0].lteNic.mac receivedPacketFromLowerLayer:vector(packetBytes) ETV
attr interpolationmode none
attr source receivedPacketFromLowerLayer
vector 167 Highway.car[1].lteNic.phy txRxDistanceSCI:vector ETV
attr source txRxDistanceSCI
attr title "Distance between transmitter and receiver, vector"
vector 168 Highway.car[1].lteNic.phy senderID:vector ETV
attr source senderID
attr title "ID of node who sent message, vector"
vector 169 Highway.car[1].lteNic.phy sciReceived:vector ETV
attr source sciReceived
attr title "Number of received sci, vector"
vector 170 Highway.car[1].lteNic.phy sciUnsensed:vector ETV
attr source sciUnsensed
attr title "Number of failed SCIs due to RSRP below threshold, vector"
vector 171 Highway.car[1].lteNic.phy sciDecoded:vector ETV
attr source sciDecoded
attr title "Number of sci successfully decoded, vector"
vector 172 Highway.car[1].lteNic.phy sciFailedDueToProp:vector ETV
attr source sciFailedDueToProp
attr title "Number of failed SCIs due to propogation, vector"
vector 173 Highway.car[1].lteNic.phy sciFailedDueToInterference:vector ETV
attr source sciFailedDueToInterference
attr title "Number of failed SCIs due to interference, vector"
vector 174 Highway.car[1].lteNic.phy sciFailedHalfDuplex:vector ETV
attr source sciFailedHalfDuplex
attr title "Number of failed SCIs due to Half Duplex, vector"
vector 175 Highway.car[1].lteNic.phy subchannelReceived:vector ETV
attr source subchannelReceived
attr title "Initial Subchannel on which packet is received, vector"
vector 176 Highway.car[1].lteNic.phy subchannelsUsed:vector ETV
attr source subchannelsUsed
attr title "Number of Subchannels used for the received packet, vector"
vector 177 Highway.car[1].lteNic.phy txRxDistanceTB:vector ETV
attr source txRxDistanceTB
attr title "Distance between transmitter and receiver, vector"
vector 178 Highway.car[1].lteNic.phy tbReceived:vector ETV
attr source tbReceived
attr title "Number of tb received, vector"
vector 179 Highway.car[1].lteNic.phy tbDecoded:vector ETV
attr source tbDecoded
attr title "Number of tb Decoded, vector"
vector 180 Highway.car[1].lteNic.phy tbFailedDueToNoSCI:vector ETV
attr source tbFailedDueToNoSCI
attr title "Number of tb not decoded due to no SCI, vector"
vector 181 Highway.car[1].lteNic.phy tbFailedDueToProp:vector ETV
attr source tbFailedDueToProp
attr title "Number of failed TBs due to propogation, vector"
vector 182 Highway.car[1].lteNic.phy tbFailedDueToInterference:vector ETV
attr source tbFailedDueToInterference
attr title "Number of failed TBs due to interference, vector"
vector 183 Highway.car[1].lteNic.phy tbFailedButSCIReceived:vector ETV
attr source tbFailedButSCIReceived
attr title "Number of failed TBs with a decoded SCI, vector"
vector 184 Highway.car[1].lteNic.phy tbFailedHalfDuplex:vector ETV
attr source tbFailedHalfDuplex
attr title "Number of failed TBs due to Half Duplex, vector"
vector 185 Highway.car[1].lteNic.phy periodic:vector ETV
attr source periodic
attr title "Identifies traffic as periodic or aperiodic, vector"
vector 186 Highway.car[1].lteNic.phy tbFailedDueToPropIgnoreSCI:vector ETV
attr source tbFailedDueToPropIgnoreSCI
attr title "Number of failed TBs due to propogation, vector"
vector 187 Highway.car[1].lteNic.phy tbFailedDueToInterferenceIgnoreSCI:vector ETV
attr source tbFailedDueToInterferenceIgnoreSCI
attr title "Number of failed TBs due to interference, vector"
vector 188 Highway.car[1].lteNic.phy tbDecodedIgnoreSCI:vector ETV
attr source tbDecodedIgnoreSCI
attr title "Number of failed TBs due to interference, vector"
vector 189 Highway.car[1].lteNic.mac receivedPacketFromLowerLayer:vector(packetBytes) ETV
attr interpolationmode none
attr source receivedPacketFromLowerLayer
vector 190 Highway.car[2].lteNic.phy txRxDistanceSCI:vector ETV
attr source txRxDistanceSCI
attr title "Distance between transmitter and receiver, vector"
vector 191 Highway.car[2].lteNic.phy senderID:vector ETV
attr source senderID
attr title "ID of node who sent message, vector"
vector 192 Highway.car[2].lteNic.phy sciReceived:vector ETV
attr source sciReceived
attr title "Number of received sci, vector"
vector 193 Highway.car[2].lteNic.phy sciUnsensed:vector ETV
attr source sciUnsensed
attr title "Number of failed SCIs due to RSRP below threshold, vector"
vector 194 Highway.car[2].lteNic.phy sciDecoded:vector ETV
attr source sciDecoded
attr title "Number of sci successfully decoded, vector"
vector 195 Highway.car[2].lteNic.phy sciFailedDueToProp:vector ETV
attr source sciFailedDueToProp
attr title "Number of failed SCIs due to propogation, vector"
vector 196 Highway.car[2].lteNic.phy sciFailedDueToInterference:vector ETV
attr source sciFailedDueToInterference
attr title "Number of failed SCIs due to interference, vector"
vector 197 Highway.car[2].lteNic.phy sciFailedHalfDuplex:vector ETV
attr source sciFailedHalfDuplex
attr title "Number of failed SCIs due to Half Duplex, vector"
vector 198 Highway.car[2].lteNic.phy subchannelReceived:vector ETV
attr source subchannelReceived
attr title "Initial Subchannel on which packet is received, vector"
vector 199 Highway.car[2].lteNic.phy subchannelsUsed:vector ETV
attr source subchannelsUsed
attr title "Number of Subchannels used for the received packet, vector"
vector 200 Highway.car[2].lteNic.phy txRxDistanceTB:vector ETV
attr source txRxDistanceTB
attr title "Distance between transmitter and receiver, vector"
vector 201 Highway.car[2].lteNic.phy tbReceived:vector ETV
attr source tbReceived
attr title "Number of tb received, vector"
vector 202 Highway.car[2].lteNic.phy tbDecoded:vector ETV
attr source tbDecoded
attr title "Number of tb Decoded, vector"
vector 203 Highway.car[2].lteNic.phy tbFailedDueToNoSCI:vector ETV
attr source tbFailedDueToNoSCI
attr title "Number of tb not decoded due to no SCI, vector"
vector 204 Highway.car[2].lteNic.phy tbFailedDueToProp:vector ETV
attr source tbFailedDueToProp
attr title "Number of failed TBs due to propogation, vector"
vector 205 Highway.car[2].lteNic.phy tbFailedDueToInterference:vector ETV
attr source tbFailedDueToInterference
attr title "Number of failed TBs due to interference, vector"
vector 206 Highway.car[2].lteNic.phy tbFailedButSCIReceived:vector ETV
attr source tbFailedButSCIReceived
attr title "Number of failed TBs with a decoded SCI, vector"
vector 207 Highway.car[2].lteNic.phy tbFailedHalfDuplex:vector ETV
attr source tbFailedHalfDuplex
attr title "Number of failed TBs due to Half Duplex, vector"
vector 208 Highway.car[2].lteNic.phy periodic:vector ETV
attr source periodic
attr title "Identifies traffic as periodic or aperiodic, vector"
vector 209 Highway.car[2].lteNic.phy tbFailedDueToPropIgnoreSCI:vector ETV
attr source tbFailedDueToPropIgnoreSCI
attr title "Number of failed TBs due to propogation, vector"
vector 210 Highway.car[2].lteNic.phy tbFailedDueToInterferenceIgnoreSCI:vector ETV
attr source tbFailedDueToInterferenceIgnoreSCI
attr title "Number of failed TBs due to interference, vector"
vector 211 Highway.car[2].lteNic.phy tbDecodedIgnoreSCI:vector ETV
attr source tbDecodedIgnoreSCI
attr title "Number of failed TBs due to interference, vector"
vector 212 Highway.car[2].lteNic.mac receivedPacketFromLowerLayer:vector(packetBytes) ETV
attr interpolationmode none
attr source receivedPacketFromLowerLayer
vector 213 Highway.car[3].lteNic.phy txRxDistanceSCI:vector ETV
attr source txRxDistanceSCI
attr title "Distance between transmitter and receiver, vector"
vector 214 Highway.car[3].lteNic.phy senderID:vector ETV
attr source senderID
attr title "ID of node who sent message, vector"
vector 215 Highway.car[3].lteNic.phy sciReceived:vector ETV
attr source sciReceived
attr title "Number of received sci, vector"
vector 216 Highway.car[3].lteNic.phy sciUnsensed:vector ETV
attr source sciUnsensed
attr title "Number of failed SCIs due to RSRP below threshold, vector"
vector 217 Highway.car[3].lteNic.phy sciDecoded:vector ETV
attr source sciDecoded
attr title "Number of sci successfully decoded, vector"
vector 218 Highway.car[3].lteNic.phy sciFailedDueToProp:vector ETV
attr source sciFailedDueToProp
attr title "Number of failed SCIs due to propogation, vector"
vector 219 Highway.car[3].lteNic.phy sciFailedDueToInterference:vector ETV
attr source sciFailedDueToInterference
attr title "Number of failed SCIs due to interference, vector"
vector 220 Highway.car[3].lteNic.phy sciFailedHalfDuplex:vector ETV
attr source sciFailedHalfDuplex
attr title "Number of failed SCIs due to Half Duplex, vector"
vector 221 Highway.car[3].lteNic.phy subchannelReceived:vector ETV
attr source subchannelReceived
attr title "Initial Subchannel on which packet is received, vector"
vector 222 Highway.car[3].lteNic.phy subchannelsUsed:vector ETV
attr source subchannelsUsed
attr title "Number of Subchannels used for the received packet, vector"
vector 223 Highway.car[3].lteNic.phy txRxDistanceTB:vector ETV
attr source txRxDistanceTB
attr title "Distance between transmitter and receiver, vector"
vector 224 Highway.car[3].lteNic.phy tbReceived:vector ETV
attr source tbReceived
attr title "Number of tb received, vector"
vector 225 Highway.car[3].lteNic.phy tbDecoded:vector ETV
attr source tbDecoded
attr title "Number of tb Decoded, vector"
vector 226 Highway.car[3].lteNic.phy tbFailedDueToNoSCI:vector ETV
attr source tbFailedDueToNoSCI
attr title "Number of tb not decoded due to no SCI, vector"
vector 227 Highway.car[3].lteNic.phy tbFailedDueToProp:vector ETV
attr source tbFailedDueToProp
attr title "Number of failed TBs due to propogation, vector"
vector 228 Highway.car[3].lteNic.phy tbFailedDueToInterference:vector ETV
attr source tbFailedDueToInterference
attr title "Number of failed TBs due to interference, vector"
vector 229 Highway.car[3].lteNic.phy tbFailedButSCIReceived:vector ETV
attr source tbFailedButSCIReceived
attr title "Number of failed TBs with a decoded SCI, vector"
vector 230 Highway.car[3].lteNic.phy tbFailedHalfDuplex:vector ETV
attr source tbFailedHalfDuplex
attr title "Number of failed TBs due to Half Duplex, vector"
vector 231 Highway.car[3].lteNic.phy periodic:vector ETV
attr source periodic
attr title "Identifies traffic as periodic or aperiodic, vector"
vector 232 Highway.car[3].lteNic.phy tbFailedDueToPropIgnoreSCI:vector ETV
attr source tbFailedDueToPropIgnoreSCI
attr title "Number of failed TBs due to propogation, vector"
vector 233 Highway.car[3].lteNic.phy tbFailedDueToInterferenceIgnoreSCI:vector ETV
attr source tbFailedDueToInterferenceIgnoreSCI
attr title "Number of failed TBs due to interference, vector"
vector 234 Highway.car[3].lteNic.phy tbDecodedIgnoreSCI:vector ETV
attr source tbDecodedIgnoreSCI
attr title "Number of failed TBs due to interference, vector"
vector 235 Highway.car[3].lteNic.mac receivedPacketFromLowerLayer:vector(packetBytes) ETV
attr interpolationmode none
attr source receivedPacketFromLowerLayer
vector 236 Highway.car[4].lteNic.phy txRxDistanceSCI:vector ETV
attr source txRxDistanceSCI
attr title "Distance between transmitter and receiver, vector"
vector 237 Highway.car[4].lteNic.phy senderID:vector ETV
attr source senderID
attr title "ID of node who sent message, vector"
vector 238 Highway.car[4].lteNic.phy sciReceived:vector ETV
attr source sciReceived
attr title "Number of received sci, vector"
vector 239 Highway.car[4].lteNic.phy sciUnsensed:vector ETV
attr source sciUnsensed
attr title "Number of failed SCIs due to RSRP below threshold, vector"
vector 240 Highway.car[4].lteNic.phy sciDecoded:vector ETV
attr source sciDecoded
attr title "Number of sci successfully decoded, vector"
vector 241 Highway.car[4].lteNic.phy sciFailedDueToProp:vector ETV
attr source sciFailedDueToProp
attr title "Number of failed SCIs due to propogation, vector"
vector 242 Highway.car[4].lteNic.phy sciFailedDueToInterference:vector ETV
attr source sciFailedDueToInterference
attr title "Number of failed SCIs due to interference, vector"
vector 243 Highway.car[4].lteNic.phy sciFailedHalfDuplex:vector ETV
attr source sciFailedHalfDuplex
attr title "Number of failed SCIs due to Half Duplex, vector"
vector 244 Highway.car[4].lteNic.phy subchannelReceived:vector ETV
attr source subchannelReceived
attr title "Initial Subchannel on which packet is received, vector"
vector 245 Highway.car[4].lteNic.phy subchannelsUsed:vector ETV
attr source subchannelsUsed
attr title "Number of Subchannels used for the received packet, vector"
vector 246 Highway.car[4].lteNic.phy txRxDistanceTB:vector ETV
attr source txRxDistanceTB
attr title "Distance between transmitter and receiver, vector"
vector 247 Highway.car[4].lteNic.phy tbReceived:vector ETV
attr source tbReceived
attr title "Number of tb received, vector"
vector 248 Highway.car[4].lteNic.phy tbDecoded:vector ETV
attr source tbDecoded
attr title "Number of tb Decoded, vector"
vector 249 Highway.car[4].lteNic.phy tbFailedDueToNoSCI:vector ETV
attr source tbFailedDueToNoSCI
attr title "Number of tb not decoded due to no SCI, vector"
vector 250 Highway.car[4].lteNic.phy tbFailedDueToProp:vector ETV
attr source tbFailedDueToProp
attr title "Number of failed TBs due to propogation, vector"
vector 251 Highway.car[4].lteNic.phy tbFailedDueToInterference:vector ETV
attr source tbFailedDueToInterference
attr title "Number of failed TBs due to interference, vector"
vector 252 Highway.car[4].lteNic.phy tbFailedButSCIReceived:vector ETV
attr source tbFailedButSCIReceived
attr title "Number of failed TBs with a decoded SCI, vector"
vector 253 Highway.car[4].lteNic.phy tbFailedHalfDuplex:vector ETV
attr source tbFailedHalfDuplex
attr title "Number of failed TBs due to Half Duplex, vector"
vector 254 Highway.car[4].lteNic.phy periodic:vector ETV
attr source periodic
attr title "Identifies traffic as periodic or aperiodic, vector"
vector 255 Highway.car[4].lteNic.phy tbFailedDueToPropIgnoreSCI:vector ETV
attr source tbFailedDueToPropIgnoreSCI
attr title "Number of failed TBs due to propogation, vector"
vector 256 Highway.car[4].lteNic.phy tbFailedDueToInterferenceIgnoreSCI:vector ETV
attr source tbFailedDueToInterferenceIgnoreSCI
attr title "Number of failed TBs due to interference, vector"
vector 257 Highway.car[4].lteNic.phy tbDecodedIgnoreSCI:vector ETV
attr source tbDecodedIgnoreSCI
attr title "Number of failed TBs due to interference, vector"
vector 258 Highway.car[4].lteNic.mac receivedPacketFromLowerLayer:vector(packetBytes) ETV
attr interpolationmode none
attr source receivedPacketFromLowerLayer
vector 259 Highway.car[5].lteNic.phy txRxDistanceSCI:vector ETV
attr source txRxDistanceSCI
attr title "Distance between transmitter and receiver, vector"
vector 260 Highway.car[5].lteNic.phy senderID:vector ETV
attr source senderID
attr title "ID of node who sent message, vector"
vector 261 Highway.car[5].lteNic.phy sciReceived:vector ETV
attr source sciReceived
attr title "Number of received sci, vector"
vector 262 Highway.car[5].lteNic.phy sciUnsensed:vector ETV
attr source sciUnsensed
attr title "Number of failed SCIs due to RSRP below threshold, vector"
vector 263 Highway.car[5].lteNic.phy sciDecoded:vector ETV
attr source sciDecoded
attr title "Number of sci successfully decoded, vector"
vector 264 Highway.car[5].lteNic.phy sciFailedDueToProp:vector ETV
attr source sciFailedDueToProp
attr title "Number of failed SCIs due to propogation, vector"
vector 265 Highway.car[5].lteNic.phy sciFailedDueToInterference:vector ETV
attr source sciFailedDueToInterference
attr title "Number of failed SCIs due to interference, vector"
vector 266 Highway.car[5].lteNic.phy sciFailedHalfDuplex:vector ETV
attr source sciFailedHalfDuplex
attr title "Number of failed SCIs due to Half Duplex, vector"
vector 267 Highway.car[5].lteNic.phy subchannelReceived:vector ETV
attr source subchannelReceived
attr title "Initial Subchannel on which packet is received, vector"
vector 268 Highway.car[5].lteNic.phy subchannelsUsed:vector ETV
attr source subchannelsUsed
attr title "Number of Subchannels used for the received packet, vector"
vector 269 Highway.car[5].lteNic.phy txRxDistanceTB:vector ETV
attr source txRxDistanceTB
attr title "Distance between transmitter and receiver, vector"
vector 270 Highway.car[5].lteNic.phy tbReceived:vector ETV
attr source tbReceived
attr title "Number of tb received, vector"
vector 271 Highway.car[5].lteNic.phy tbDecoded:vector ETV
attr source tbDecoded
attr title "Number of tb Decoded, vector"
vector 272 Highway.car[5].lteNic.phy tbFailedDueToNoSCI:vector ETV
attr source tbFailedDueToNoSCI
attr title "Number of tb not decoded due to no SCI, vector"
vector 273 Highway.car[5].lteNic.phy tbFailedDueToProp:vector ETV
attr source tbFailedDueToProp
attr title "Number of failed TBs due to propogation, vector"
vector 274 Highway.car[5].lteNic.phy tbFailedDueToInterference:vector ETV
attr source tbFailedDueToInterference
attr title "Number of failed TBs due to interference, vector"
vector 275 Highway.car[5].lteNic.phy tbFailedButSCIReceived:vector ETV
attr source tbFailedButSCIReceived
attr title "Number of failed TBs with a decoded SCI, vector"
vector 276 Highway.car[5].lteNic.phy tbFailedHalfDuplex:vector ETV
attr source tbFailedHalfDuplex
attr title "Number of failed TBs due to Half Duplex, vector"
vector 277 Highway.car[5].lteNic.phy periodic:vector ETV
attr source periodic
attr title "Identifies traffic as periodic or aperiodic, vector"
vector 278 Highway.car[5].lteNic.phy tbFailedDueToPropIgnoreSCI:vector ETV
attr source tbFailedDueToPropIgnoreSCI
attr title "Number of failed TBs due to propogation, vector"
vector 279 Highway.car[5].lteNic.phy tbFailedDueToInterferenceIgnoreSCI:vector ETV
attr source tbFailedDueToInterferenceIgnoreSCI
attr title "Number of failed TBs due to interference, vector"
vector 280 Highway.car[5].lteNic.phy tbDecodedIgnoreSCI:vector ETV
attr source tbDecodedIgnoreSCI
attr title "Number of failed TBs due to interference, vector"
vector 281 Highway.car[5].lteNic.mac receivedPacketFromLowerLayer:vector(packetBytes) ETV
attr interpolationmode none
attr source receivedPacketFromLowerLayer
vector 282 Highway.car[6].lteNic.phy txRxDistanceSCI:vector ETV
attr source txRxDistanceSCI
attr title "Distance between transmitter and receiver, vector"
vector 283 Highway.car[6].lteNic.phy senderID:vector ETV
attr source senderID
attr title "ID of node who sent message, vector"
vector 284 Highway.car[6].lteNic.phy sciReceived:vector ETV
attr source sciReceived
attr title "Number of received sci, vector"
vector 285 Highway.car[6].lteNic.phy sciUnsensed:vector ETV
attr source sciUnsensed
attr title "Number of failed SCIs due to RSRP below threshold, vector"
vector 286 Highway.car[6].lteNic.phy sciDecoded:vector ETV
attr source sciDecoded
attr title "Number of sci successfully decoded, vector"
vector 287 Highway.car[6].lteNic.phy sciFailedDueToProp:vector ETV
attr source sciFailedDueToProp
attr title "Number of failed SCIs due to propogation, vector"
vector 288 Highway.car[6].lteNic.phy sciFailedDueToInterference:vector ETV
attr source sciFailedDueToInterference
attr title "Number of failed SCIs due to interference, vector"
vector 289 Highway.car[6].lteNic.phy sciFailedHalfDuplex:vector ETV
attr source sciFailedHalfDuplex
attr title "Number of failed SCIs due to Half Duplex, vector"
vector 290 Highway.car[6].lteNic.phy subchannelReceived:vector ETV
attr source subchannelReceived
attr title "Initial Subchannel on which packet is received, vector"
vector 291 Highway.car[6].lteNic.phy subchannelsUsed:vector ETV
attr source subchannelsUsed
attr title "Number of Subchannels used for the received packet, vector"
vector 292 Highway.car[6].lteNic.phy txRxDistanceTB:vector ETV
attr source txRxDistanceTB
attr title "Distance between transmitter and receiver, vector"
vector 293 Highway.car[6].lteNic.phy tbReceived:vector ETV
attr source tbReceived
attr title "Number of tb received, vector"
vector 294 Highway.car[6].lteNic.phy tbDecoded:vector ETV
attr source tbDecoded
attr title "Number of tb Decoded, vector"
vector 295 Highway.car[6].lteNic.phy tbFailedDueToNoSCI:vector ETV
attr source tbFailedDueToNoSCI
attr title "Number of tb not decoded due to no SCI, vector"
vector 296 Highway.car[6].lteNic.phy tbFailedDueToProp:vector ETV
attr source tbFailedDueToProp
attr title "Number of failed TBs due to propogation, vector"
vector 297 Highway.car[6].lteNic.phy tbFailedDueToInterference:vector ETV
attr source tbFailedDueToInterference
attr title "Number of failed TBs due to interference, vector"
vector 298 Highway.car[6].lteNic.phy tbFailedButSCIReceived:vector ETV
attr source tbFailedButSCIReceived
attr title "Number of failed TBs with a decoded SCI, vector"
vector 299 Highway.car[6].lteNic.phy tbFailedHalfDuplex:vector ETV
attr source tbFailedHalfDuplex
attr title "Number of failed TBs due to Half Duplex, vector"
vector 300 Highway.car[6].lteNic.phy periodic:vector ETV
attr source periodic
attr title "Identifies traffic as periodic or aperiodic, vector"
vector 301 Highway.car[6].lteNic.phy tbFailedDueToPropIgnoreSCI:vector ETV
attr source tbFailedDueToPropIgnoreSCI
attr title "Number of failed TBs due to propogation, vector"
vector 302 Highway.car[6].lteNic.phy tbFailedDueToInterferenceIgnoreSCI:vector ETV
attr source tbFailedDueToInterferenceIgnoreSCI
attr title "Number of failed TBs due to interference, vector"
vector 303 Highway.car[6].lteNic.phy tbDecodedIgnoreSCI:vector ETV
attr source tbDecodedIgnoreSCI
attr title "Number of failed TBs due to interference, vector"
vector 304 Highway.car[6].lteNic.mac receivedPacketFromLowerLayer:vector(packetBytes) ETV
attr interpolationmode none
attr source receivedPacketFromLowerLayer
vector 305 Highway.car[7].lteNic.phy txRxDistanceSCI:vector ETV
attr source txRxDistanceSCI
attr title "Distance between transmitter and receiver, vector"
vector 306 Highway.car[7].lteNic.phy senderID:vector ETV
attr source senderID
attr title "ID of node who sent message, vector"
vector 307 Highway.car[7].lteNic.phy sciReceived:vector ETV
attr source sciReceived
attr title "Number of received sci, vector"
vector 308 Highway.car[7].lteNic.phy sciUnsensed:vector ETV
attr source sciUnsensed
attr title "Number of failed SCIs due to RSRP below threshold, vector"
vector 309 Highway.car[7].lteNic.phy sciDecoded:vector ETV
attr source sciDecoded
attr title "Number of sci successfully decoded, vector"
vector 310 Highway.car[7].lteNic.phy sciFailedDueToProp:vector ETV
attr source sciFailedDueToProp
attr title "Number of failed SCIs due to propogation, vector"
vector 311 Highway.car[7].lteNic.phy sciFailedDueToInterference:vector ETV
attr source sciFailedDueToInterference
attr title "Number of failed SCIs due to interference, vector"
vector 312 Highway.car[7].lteNic.phy sciFailedHalfDuplex:vector ETV
attr source sciFailedHalfDuplex
attr title "Number of failed SCIs due to Half Duplex, vector"
vector 313 Highway.car[7].lteNic.phy subchannelReceived:vector ETV
attr source subchannelReceived
attr title "Initial Subchannel on which packet is received, vector"
vector 314 Highway.car[7].lteNic.phy subchannelsUsed:vector ETV
attr source subchannelsUsed
attr title "Number of Subchannels used for the received packet, vector"
vector 315 Highway.car[7].lteNic.phy txRxDistanceTB:vector ETV
attr source txRxDistanceTB
attr title "Distance between transmitter and receiver, vector"
vector 316 Highway.car[7].lteNic.phy tbReceived:vector ETV
attr source tbReceived
attr title "Number of tb received, vector"
vector 317 Highway.car[7].lteNic.phy tbDecoded:vector ETV
attr source tbDecoded
attr title "Number of tb Decoded, vector"
vector 318 Highway.car[7].lteNic.phy tbFailedDueToNoSCI:vector ETV
attr source tbFailedDueToNoSCI
attr title "Number of tb not decoded due to no SCI, vector"
vector 319 Highway.car[7].lteNic.phy tbFailedDueToProp:vector ETV
attr source tbFailedDueToProp
attr title "Number of failed TBs due to propogation, vector"
vector 320 Highway.car[7].lteNic.phy tbFailedDueToInterference:vector ETV
attr source tbFailedDueToInterference
attr title "Number of failed TBs due to interference, vector"
vector 321 Highway.car[7].lteNic.phy tbFailedButSCIReceived:vector ETV
attr source tbFailedButSCIReceived
attr title "Number of failed TBs with a decoded SCI, vector"
vector 322 Highway.car[7].lteNic.phy tbFailedHalfDuplex:vector ETV
attr source tbFailedHalfDuplex
attr title "Number of failed TBs due to Half Duplex, vector"
vector 323 Highway.car[7].lteNic.phy periodic:vector ETV
attr source periodic
attr title "Identifies traffic as periodic or aperiodic, vector"
vector 324 Highway.car[7].lteNic.phy tbFailedDueToPropIgnoreSCI:vector ETV
attr source tbFailedDueToPropIgnoreSCI
attr title "Number of failed TBs due to propogation, vector"
vector 325 Highway.car[7].lteNic.phy tbFailedDueToInterferenceIgnoreSCI:vector ETV
attr source tbFailedDueToInterferenceIgnoreSCI
attr title "Number of failed TBs due to interference, vector"
vector 326 Highway.car[7].lteNic.phy tbDecodedIgnoreSCI:vector ETV
attr source tbDecodedIgnoreSCI
attr title "Number of failed TBs due to interference, vector"
vector 327 Highway.car[7].lteNic.mac receivedPacketFromLowerLayer:vector(packetBytes) ETV
attr interpolationmode none
attr source receivedPacketFromLowerLayer
vector 328 Highway.car[8].lteNic.phy txRxDistanceSCI:vector ETV
attr source txRxDistanceSCI
attr title "Distance between transmitter and receiver, vector"
vector 329 Highway.car[8].lteNic.phy senderID:vector ETV
attr source senderID
attr title "ID of node who sent message, vector"
vector 330 Highway.car[8].lteNic.phy sciReceived:vector ETV
attr source sciReceived
attr title "Number of received sci, vector"
vector 331 Highway.car[8].lteNic.phy sciUnsensed:vector ETV
attr source sciUnsensed
attr title "Number of failed SCIs due to RSRP below threshold, vector"
vector 332 Highway.car[8].lteNic.phy sciDecoded:vector ETV
attr source sciDecoded
attr title "Number of sci successfully decoded, vector"
vector 333 Highway.car[8].lteNic.phy sciFailedDueToProp:vector ETV
attr source sciFailedDueToProp
attr title "Number of failed SCIs due to propogation, vector"
vector 334 Highway.car[8].lteNic.phy sciFailedDueToInterference:vector ETV
attr source sciFailedDueToInterference
attr title "Number of failed SCIs due to interference, vector"
vector 335 Highway.car[8].lteNic.phy sciFailedHalfDuplex:vector ETV
attr source sciFailedHalfDuplex
attr title "Number of failed SCIs due to Half Duplex, vector"
vector 336 Highway.car[8].lteNic.phy subchannelReceived:vector ETV
attr source subchannelReceived
attr title "Initial Subchannel on which packet is received, vector"
vector 337 Highway.car[8].lteNic.phy subchannelsUsed:vector ETV
attr source subchannelsUsed
attr title "Number of Subchannels used for the received packet, vector"
vector 338 Highway.car[8].lteNic.phy txRxDistanceTB:vector ETV
attr source txRxDistanceTB
attr title "Distance between transmitter and receiver, vector"
vector 339 Highway.car[8].lteNic.phy tbReceived:vector ETV
attr source tbReceived
attr title "Number of tb received, vector"
vector 340 Highway.car[8].lteNic.phy tbDecoded:vector ETV
attr source tbDecoded
attr title "Number of tb Decoded, vector"
vector 341 Highway.car[8].lteNic.phy tbFailedDueToNoSCI:vector ETV
attr source tbFailedDueToNoSCI
attr title "Number of tb not decoded due to no SCI, vector"
vector 342 Highway.car[8].lteNic.phy tbFailedDueToProp:vector ETV
attr source tbFailedDueToProp
attr title "Number of failed TBs due to propogation, vector"
vector 343 Highway.car[8].lteNic.phy tbFailedDueToInterference:vector ETV
attr source tbFailedDueToInterference
attr title "Number of failed TBs due to interference, vector"
vector 344 Highway.car[8].lteNic.phy tbFailedButSCIReceived:vector ETV
attr source tbFailedButSCIReceived
attr title "Number of failed TBs with a decoded SCI, vector"
vector 345 Highway.car[8].lteNic.phy tbFailedHalfDuplex:vector ETV
attr source tbFailedHalfDuplex
attr title "Number of failed TBs due to Half Duplex, vector"
vector 346 Highway.car[8].lteNic.phy periodic:vector ETV
attr source periodic
attr title "Identifies traffic as periodic or aperiodic, vector"
vector 347 Highway.car[8].lteNic.phy tbFailedDueToPropIgnoreSCI:vector ETV
attr source tbFailedDueToPropIgnoreSCI
attr title "Number of failed TBs due to propogation, vector"
vector 348 Highway.car[8].lteNic.phy tbFailedDueToInterferenceIgnoreSCI:vector ETV
attr source tbFailedDueToInterferenceIgnoreSCI
attr title "Number of failed TBs due to interference, vector"
vector 349 Highway.car[8].lteNic.phy tbDecodedIgnoreSCI:vector ETV
attr source tbDecodedIgnoreSCI
attr title "Number of failed TBs due to interference, vector"
vector 350 Highway.car[8].lteNic.mac receivedPacketFromLowerLayer:vector(packetBytes) ETV
attr interpolationmode none
attr source receivedPacketFromLowerLayer
vector 351 Highway.car[9].lteNic.phy txRxDistanceSCI:vector ETV
attr source txRxDistanceSCI
attr title "Distance between transmitter and receiver, vector"
vector 352 Highway.car[9].lteNic.phy senderID:vector ETV
attr source senderID
attr title "ID of node who sent message, vector"
vector 353 Highway.car[9].lteNic.phy sciReceived:vector ETV
attr source sciReceived
attr title "Number of received sci, vector"
vector 354 Highway.car[9].lteNic.phy sciUnsensed:vector ETV
attr source sciUnsensed
attr title "Number of failed SCIs due to RSRP below threshold, vector"
vector 355 Highway.car[9].lteNic.phy sciDecoded:vector ETV
attr source sciDecoded
attr title "Number of sci successfully decoded, vector"
vector 356 Highway.car[9].lteNic.phy sciFailedDueToProp:vector ETV
attr source sciFailedDueToProp
attr title "Number of failed SCIs due to propogation, vector"
vector 357 Highway.car[9].lteNic.phy sciFailedDueToInterference:vector ETV
attr source sciFailedDueToInterference
attr title "Number of failed SCIs due to interference, vector"
vector 358 Highway.car[9].lteNic.phy sciFailedHalfDuplex:vector ETV
attr source sciFailedHalfDuplex
attr title "Number of failed SCIs due to Half Duplex, vector"
vector 359 Highway.car[9].lteNic.phy subchannelReceived:vector ETV
attr source subchannelReceived
attr title "Initial Subchannel on which packet is received, vector"
vector 360 Highway.car[9].lteNic.phy subchannelsUsed:vector ETV
attr source subchannelsUsed
attr title "Number of Subchannels used for the received packet, vector"
vector 361 Highway.car[9].lteNic.phy txRxDistanceTB:vector ETV
attr source txRxDistanceTB
attr title "Distance between transmitter and receiver, vector"
vector 362 Highway.car[9].lteNic.phy tbReceived:vector ETV
attr source tbReceived
attr title "Number of tb received, vector"
vector 363 Highway.car[9].lteNic.phy tbDecoded:vector ETV
attr source tbDecoded
attr title "Number of tb Decoded, vector"
vector 364 Highway.car[9].lteNic.phy tbFailedDueToNoSCI:vector ETV
attr source tbFailedDueToNoSCI
attr title "Number of tb not decoded due to no SCI, vector"
vector 365 Highway.car[9].lteNic.phy tbFailedDueToProp:vector ETV
attr source tbFailedDueToProp
attr title "Number of failed TBs due to propogation, vector"
vector 366 Highway.car[9].lteNic.phy tbFailedDueToInterference:vector ETV
attr source tbFailedDueToInterference
attr title "Number of failed TBs due to interference, vector"
vector 367 Highway.car[9].lteNic.phy tbFailedButSCIReceived:vector ETV
attr source tbFailedButSCIReceived
attr title "Number of failed TBs with a decoded SCI, vector"
vector 368 Highway.car[9].lteNic.phy tbFailedHalfDuplex:vector ETV
attr source tbFailedHalfDuplex
attr title "Number of failed TBs due to Half Duplex, vector"
vector 369 Highway.car[9].lteNic.phy periodic:vector ETV
attr source periodic
attr title "Identifies traffic as periodic or aperiodic, vector"
vector 370 Highway.car[9].lteNic.phy tbFailedDueToPropIgnoreSCI:vector ETV
attr source tbFailedDueToPropIgnoreSCI
attr title "Number of failed TBs due to propogation, vector"
vector 371 Highway.car[9].lteNic.phy tbFailedDueToInterferenceIgnoreSCI:vector ETV
attr source tbFailedDueToInterferenceIgnoreSCI
attr title "Number of failed TBs due to interference, vector"
vector 372 Highway.car[9].lteNic.phy tbDecodedIgnoreSCI:vector ETV
attr source tbDecodedIgnoreSCI
attr title "Number of failed TBs due to interference, vector"
vector 373 Highway.car[9].lteNic.mac receivedPacketFromLowerLayer:vector(packetBytes) ETV
attr interpolationmode none
attr source receivedPacketFromLowerLayer
vector 374 Highway.car[10].lteNic.phy txRxDistanceSCI:vector ETV
attr source txRxDistanceSCI
attr title "Distance between transmitter and receiver, vector"
vector 375 Highway.car[10].lteNic.phy senderID:vector ETV
attr source senderID
attr title "ID of node who sent message, vector"
vector 376 Highway.car[10].lteNic.phy sciReceived:vector ETV
attr source sciReceived
attr title "Number of received sci, vector"
vector 377 Highway.car[10].lteNic.phy sciUnsensed:vector ETV
attr source sciUnsensed
attr title "Number of failed SCIs due to RSRP below threshold, vector"
vector 378 Highway.car[10].lteNic.phy sciDecoded:vector ETV
attr source sciDecoded
attr title "Number of sci successfully decoded, vector"
vector 379 Highway.car[10].lteNic.phy sciFailedDueToProp:vector ETV
attr source sciFailedDueToProp
attr title "Number of failed SCIs due to propogation, vector"
vector 380 Highway.car[10].lteNic.phy sciFailedDueToInterference:vector ETV
attr source sciFailedDueToInterference
attr title "Number of failed SCIs due to interference, vector"
vector 381 Highway.car[10].lteNic.phy sciFailedHalfDuplex:vector ETV
attr source sciFailedHalfDuplex
attr title "Number of failed SCIs due to Half Duplex, vector"
vector 382 Highway.car[10].lteNic.phy subchannelReceived:vector ETV
attr source subchannelReceived
attr title "Initial Subchannel on which packet is received, vector"
vector 383 Highway.car[10].lteNic.phy subchannelsUsed:vector ETV
attr source subchannelsUsed
attr title "Number of Subchannels used for the received packet, vector"
vector 384 Highway.car[10].lteNic.phy txRxDistanceTB:vector ETV
attr source txRxDistanceTB
attr title "Distance between transmitter and receiver, vector"
vector 385 Highway.car[10].lteNic.phy tbReceived:vector ETV
attr source tbReceived
attr title "Number of tb received, vector"
vector 386 Highway.car[10].lteNic.phy tbDecoded:vector ETV
attr source tbDecoded
attr title "Number of tb Decoded, vector"
vector 387 Highway.car[10].lteNic.phy tbFailedDueToNoSCI:vector ETV
attr source tbFailedDueToNoSCI
attr title "Number of tb not decoded due to no SCI, vector"
vector 388 Highway.car[10].lteNic.phy tbFailedDueToProp:vector ETV
attr source tbFailedDueToProp
attr title "Number of failed TBs due to propogation, vector"
vector 389 Highway.car[10].lteNic.phy tbFailedDueToInterference:vector ETV
attr source tbFailedDueToInterference
attr title "Number of failed TBs due to interference, vector"
vector 390 Highway.car[10].lteNic.phy tbFailedButSCIReceived:vector ETV
attr source tbFailedButSCIReceived
attr title "Number of failed TBs with a decoded SCI, vector"
vector 391 Highway.car[10].lteNic.phy tbFailedHalfDuplex:vector ETV
attr source tbFailedHalfDuplex
attr title "Number of failed TBs due to Half Duplex, vector"
vector 392 Highway.car[10].lteNic.phy periodic:vector ETV
attr source periodic
attr title "Identifies traffic as periodic or aperiodic, vector"
vector 393 Highway.car[10].lteNic.phy tbFailedDueToPropIgnoreSCI:vector ETV
attr source tbFailedDueToPropIgnoreSCI
attr title "Number of failed TBs due to propogation, vector"
vector 394 Highway.car[10].lteNic.phy tbFailedDueToInterferenceIgnoreSCI:vector ETV
attr source tbFailedDueToInterferenceIgnoreSCI
attr title "Number of failed TBs due to interference, vector"
vector 395 Highway.car[10].lteNic.phy tbDecodedIgnoreSCI:vector ETV
attr source tbDecodedIgnoreSCI
attr title "Number of failed TBs due to interference, vector"
vector 396 Highway.car[10].lteNic.mac receivedPacketFromLowerLayer:vector(packetBytes) ETV
attr interpolationmode none
attr source receivedPacketFromLowerLayer
vector 397 Highway.car[11].lteNic.phy txRxDistanceSCI:vector ETV
attr source txRxDistanceSCI
attr title "Distance between transmitter and receiver, vector"
vector 398 Highway.car[11].lteNic.phy senderID:vector ETV
attr source senderID
attr title "ID of node who sent message, vector"
vector 399 Highway.car[11].lteNic.phy sciReceived:vector ETV
attr source sciReceived
attr title "Number of received sci, vector"
vector 400 Highway.car[11].lteNic.phy sciUnsensed:vector ETV
attr source sciUnsensed
attr title "Number of failed SCIs due to RSRP below threshold, vector"
vector 401 Highway.car[11].lteNic.phy sciDecoded:vector ETV
attr source sciDecoded
attr title "Number of sci successfully decoded, vector"
vector 402 Highway.car[11].lteNic.phy sciFailedDueToProp:vector ETV
attr source sciFailedDueToProp
attr title "Number of failed SCIs due to propogation, vector"
vector 403 Highway.car[11].lteNic.phy sciFailedDueToInterference:vector ETV
attr source sciFailedDueToInterference
attr title "Number of failed SCIs due to interference, vector"
vector 404 Highway.car[11].lteNic.phy sciFailedHalfDuplex:vector ETV
attr source sciFailedHalfDuplex
attr title "Number of failed SCIs due to Half Duplex, vector"
vector 405 Highway.car[11].lteNic.phy subchannelReceived:vector ETV
attr source subchannelReceived
attr title "Initial Subchannel on which packet is received, vector"
vector 406 Highway.car[11].lteNic.phy subchannelsUsed:vector ETV
attr source subchannelsUsed
attr title "Number of Subchannels used for the received packet, vector"
vector 407 Highway.car[11].lteNic.phy txRxDistanceTB:vector ETV
attr source txRxDistanceTB
attr title "Distance between transmitter and receiver, vector"
vector 408 Highway.car[11].lteNic.phy tbReceived:vector ETV
attr source tbReceived
attr title "Number of tb received, vector"
vector 409 Highway.car[11].lteNic.phy tbDecoded:vector ETV
attr source tbDecoded
attr title "Number of tb Decoded, vector"
vector 410 Highway.car[11].lteNic.phy tbFailedDueToNoSCI:vector ETV
attr source tbFailedDueToNoSCI
attr title "Number of tb not decoded due to no SCI, vector"
vector 411 Highway.car[11].lteNic.phy tbFailedDueToProp:vector ETV
attr source tbFailedDueToProp
attr title "Number of failed TBs due to propogation, vector"
vector 412 Highway.car[11].lteNic.phy tbFailedDueToInterference:vector ETV
attr source tbFailedDueToInterference
attr title "Number of failed TBs due to interference, vector"
vector 413 Highway.car[11].lteNic.phy tbFailedButSCIReceived:vector ETV
attr source tbFailedButSCIReceived
attr title "Number of failed TBs with a decoded SCI, vector"
vector 414 Highway.car[11].lteNic.phy tbFailedHalfDuplex:vector ETV
attr source tbFailedHalfDuplex
attr title "Number of failed TBs due to Half Duplex, vector"
vector 415 Highway.car[11].lteNic.phy periodic:vector ETV
attr source periodic
attr title "Identifies traffic as periodic or aperiodic, vector"
vector 416 Highway.car[11].lteNic.phy tbFailedDueToPropIgnoreSCI:vector ETV
attr source tbFailedDueToPropIgnoreSCI
attr title "Number of failed TBs due to propogation, vector"
vector 417 Highway.car[11].lteNic.phy tbFailedDueToInterferenceIgnoreSCI:vector ETV
attr source tbFailedDueToInterferenceIgnoreSCI
attr title "Number of failed TBs due to interference, vector"
vector 418 Highway.car[11].lteNic.phy tbDecodedIgnoreSCI:vector ETV
attr source tbDecodedIgnoreSCI
attr title "Number of failed TBs due to interference, vector"
vector 419 Highway.car[11].lteNic.mac receivedPacketFromLowerLayer:vector(packetBytes) ETV
attr interpolationmode none
attr source receivedPacketFromLowerLayer
vector 420 Highway.car[12].lteNic.phy txRxDistanceSCI:vector ETV
attr source txRxDistanceSCI
attr title "Distance between transmitter and receiver, vector"
vector 421 Highway.car[12].lteNic.phy senderID:vector ETV
attr source senderID
attr title "ID of node who sent message, vector"
vector 422 Highway.car[12].lteNic.phy sciReceived:vector ETV
attr source sciReceived
attr title "Number of received sci, vector"
vector 423 Highway.car[12].lteNic.phy sciUnsensed:vector ETV
attr source sciUnsensed
attr title "Number of failed SCIs due to RSRP below threshold, vector"
vector 424 Highway.car[12].lteNic.phy sciDecoded:vector ETV
attr source sciDecoded
attr title "Number of sci successfully decoded, vector"
vector 425 Highway.car[12].lteNic.phy sciFailedDueToProp:vector ETV
attr source sciFailedDueToProp
attr title "Number of failed SCIs due to propogation, vector"
vector 426 Highway.car[12].lteNic.phy sciFailedDueToInterference:vector ETV
attr source sciFailedDueToInterference
attr title "Number of failed SCIs due to interference, vector"
[...]
118	673	500.011	1430.2203596499
118	733	500.012	1430.2203596499
118	793	500.013	1430.2203596499
118	853	500.014	1430.2203596499
118	913	500.015	1430.2203596499
118	973	500.016	1430.2203596499
118	1040	500.017	1430.2203596499
118	1216	500.018	1430.2203596499
118	1397	500.019	1430.2203596499
118	1457	500.02	1430.2203596499
118	1517	500.021	1430.2203596499
118	1577	500.022	1430.2203596499
118	1637	500.023	1430.2203596499
118	1697	500.024	1430.2203596499
118	1762	500.025	1430.2203596499
118	1822	500.026	1430.2203596499
118	1882	500.027	1430.2203596499
118	1942	500.028	1430.2203596499
118	2002	500.029	1430.2203596499
119	487	500.008	65
119	553	500.009	65
119	613	500.01	65
119	673	500.011	65
119	733	500.012	65
119	793	500.013	65
119	853	500.014	65
119	913	500.015	65
119	973	500.016	65
119	1040	500.017	65
119	1216	500.018	65
119	1397	500.019	65
119	1457	500.02	65
119	1517	500.021	65
119	1577	500.022	65
119	1637	500.023	65
119	1697	500.024	65
119	1762	500.025	65
119	1822	500.026	65
119	1882	500.027	65
119	1942	500.028	65
119	2002	500.029	65
120	488	500.008	687.88532407619
120	554	500.009	687.88532407619
120	614	500.01	687.88532407619
120	674	500.011	687.88532407619
120	734	500.012	687.88532407619
120	794	500.013	687.88532407619
120	854	500.014	687.88532407619
120	914	500.015	687.88532407619
120	974	500.016	687.88532407619
120	1041	500.017	687.88532407619
120	1217	500.018	687.88532407619
120	1398	500.019	687.88532407619
120	1458	500.02	687.88532407619
120	1518	500.021	687.88532407619
120	1578	500.022	687.88532407619
120	1638	500.023	687.88532407619
120	1698	500.024	687.88532407619
120	1763	500.025	687.88532407619
120	1823	500.026	687.88532407619
120	1883	500.027	687.88532407619
120	1943	500.028	687.88532407619
120	2003	500.029	687.88532407619
121	488	500.008	81
121	554	500.009	81
121	614	500.01	81
121	674	500.011	81
121	734	500.012	81
121	794	500.013	81
121	854	500.014	81
121	914	500.015	81
121	974	500.016	81
121	1041	500.017	81
121	1217	500.018	81
121	1398	500.019	81
121	1458	500.02	81
121	1518	500.021	81
121	1578	500.022	81
121	1638	500.023	81
121	1698	500.024	81
121	1763	500.025	81
121	1823	500.026	81
121	1883	500.027	81
121	1943	500.028	81
121	2003	500.029	81
122	1157	500.017	5
123	1288	500.018	3
124	1291	500.018	0
127	489	500.008	0
128	489	500.008	1
129	492	500.008	15
130	492	500.008	0
130	1009	500.016	0
130	1009	500.016	5
131	492	500.008	1
132	492	500.008	1
132	1005	500.016	3
133	494	500.008	0
134	494	500.008	500.016
135	494	500.008	0
136	494	500.008	1
137	494	500.008	0
138	1001	500.016	0
139	1009	500.016	5
140	1010	500.016	1
141	1010	500.016	0
142	1010	500.016	1
143	1011	500.016	1
144	1130	500.017	311.83102620914
145	1130	500.017	1051
146	1130	500.017	1
147	1130	500.017	0
148	1130	500.017	1
149	1130	500.017	0
150	1130	500.017	0
151	1130	500.017	0
152	1130	500.017	0
153	1130	500.017	1
154	1130	500.017	311.83102620914
155	1130	500.017	1
156	1130	500.017	1
157	1130	500.017	0
158	1130	500.017	0
159	1130	500.017	0
160	1130	500.017	0
161	1130	500.017	0
162	1130	500.017	1
163	1130	500.017	0
164	1130	500.017	0
165	1130	500.017	1
166	1131	500.017	5
167	1132	500.017	1102.267973755
168	1132	500.017	1051
169	1132	500.017	1
170	1132	500.017	1
171	1132	500.017	0
172	1132	500.017	0
173	1132	500.017	0
174	1132	500.017	0
175	1132	500.017	0
176	1132	500.017	1
177	1132	500.017	1102.267973755
178	1132	500.017	1
179	1132	500.017	0
180	1132	500.017	1
181	1132	500.017	0
182	1132	500.017	0
183	1132	500.017	0
184	1132	500.017	0
185	1132	500.017	1
186	1132	500.017	0
187	1132	500.017	0
188	1132	500.017	1
189	1133	500.017	5
190	1134	500.017	389.19247083925
191	1134	500.017	1051
192	1134	500.017	1
193	1134	500.017	0
194	1134	500.017	1
195	1134	500.017	0
196	1134	500.017	0
197	1134	500.017	0
198	1134	500.017	0
199	1134	500.017	1
200	1134	500.017	389.19247083925
201	1134	500.017	1
202	1134	500.017	1
203	1134	500.017	0
204	1134	500.017	0
205	1134	500.017	0
206	1134	500.017	0
207	1134	500.017	0
208	1134	500.017	1
209	1134	500.017	0
210	1134	500.017	0
211	1134	500.017	1
212	1135	500.017	5
213	1136	500.017	1102.8456744347
214	1136	500.017	1051
215	1136	500.017	1
216	1136	500.017	1
217	1136	500.017	0
218	1136	500.017	0
219	1136	500.017	0
220	1136	500.017	0
221	1136	500.017	0
222	1136	500.017	1
223	1136	500.017	1102.8456744347
224	1136	500.017	1
225	1136	500.017	0
226	1136	500.017	1
227	1136	500.017	0
228	1136	500.017	0
229	1136	500.017	0
230	1136	500.017	0
231	1136	500.017	1
232	1136	500.017	0
233	1136	500.017	0
234	1136	500.017	1
235	1137	500.017	5
236	1138	500.017	781.00085412606
237	1138	500.017	1051
238	1138	500.017	1
239	1138	500.017	1
240	1138	500.017	0
241	1138	500.017	0
242	1138	500.017	0
243	1138	500.017	0
244	1138	500.017	0
245	1138	500.017	1
246	1138	500.017	781.00085412606
247	1138	500.017	1
248	1138	500.017	0
249	1138	500.017	1
250	1138	500.017	0
251	1138	500.017	0
252	1138	500.017	0
253	1138	500.017	0
254	1138	500.017	1
255	1138	500.017	0
256	1138	500.017	0
257	1138	500.017	1
258	1139	500.017	5
259	1140	500.017	1234.8705566263
260	1140	500.017	1051
261	1140	500.017	1
262	1140	500.017	1
263	1140	500.017	0
264	1140	500.017	0
265	1140	500.017	0
266	1140	500.017	0
267	1140	500.017	0
268	1140	500.017	1
269	1140	500.017	1234.8705566263
270	1140	500.017	1
271	1140	500.017	0
272	1140	500.017	1
273	1140	500.017	0
274	1140	500.017	0
275	1140	500.017	0
276	1140	500.017	0
277	1140	500.017	1
278	1140	500.017	0
279	1140	500.017	0
280	1140	500.017	1
281	1141	500.017	5
282	1142	500.017	73.562192445348
283	1142	500.017	1051
284	1142	500.017	1
285	1142	500.017	0
286	1142	500.017	1
287	1142	500.017	0
288	1142	500.017	0
289	1142	500.017	0
290	1142	500.017	0
291	1142	500.017	1
292	1142	500.017	73.562192445348
293	1142	500.017	1
294	1142	500.017	1
295	1142	500.017	0
296	1142	500.017	0
297	1142	500.017	0
298	1142	500.017	0
299	1142	500.017	0
300	1142	500.017	1
301	1142	500.017	0
302	1142	500.017	0
303	1142	500.017	1
304	1143	500.017	5
305	1144	500.017	1337.389047271
306	1144	500.017	1051
307	1144	500.017	1
308	1144	500.017	1
309	1144	500.017	0
310	1144	500.017	0
311	1144	500.017	0
312	1144	500.017	0
313	1144	500.017	0
314	1144	500.017	1
315	1144	500.017	1337.389047271
316	1144	500.017	1
317	1144	500.017	0
318	1144	500.017	1
319	1144	500.017	0
320	1144	500.017	0
321	1144	500.017	0
322	1144	500.017	0
323	1144	500.017	1
324	1144	500.017	0
325	1144	500.017	0
326	1144	500.017	1
327	1145	500.017	5
328	1146	500.017	39.129527189134
329	1146	500.017	1051
330	1146	500.017	1
331	1146	500.017	0
332	1146	500.017	1
333	1146	500.017	0
334	1146	500.017	0
335	1146	500.017	0
336	1146	500.017	0
337	1146	500.017	1
338	1146	500.017	39.129527189134
339	1146	500.017	1
340	1146	500.017	1
341	1146	500.017	0
342	1146	500.017	0
343	1146	500.017	0
344	1146	500.017	0
345	1146	500.017	0
346	1146	500.017	1
347	1146	500.017	0
348	1146	500.017	0
349	1146	500.017	1
350	1147	500.017	5
351	1148	500.017	729.92847117044
352	1148	500.017	1051
353	1148	500.017	1
354	1148	500.017	1
355	1148	500.017	0
356	1148	500.017	0
357	1148	500.017	0
358	1148	500.017	0
359	1148	500.017	0
360	1148	500.017	1
361	1148	500.017	729.92847117044
362	1148	500.017	1
363	1148	500.017	0
364	1148	500.017	1
365	1148	500.017	0
366	1148	500.017	0
367	1148	500.017	0
368	1148	500.017	0
369	1148	500.017	1
370	1148	500.017	0
371	1148	500.017	0
372	1148	500.017	1
373	1149	500.017	5
374	1150	500.017	32.75914813509
375	1150	500.017	1051
376	1150	500.017	1
377	1150	500.017	0
378	1150	500.017	1
379	1150	500.017	0
380	1150	500.017	0
381	1150	500.017	0
382	1150	500.017	0
383	1150	500.017	1
384	1150	500.017	32.75914813509
385	1150	500.017	1
386	1150	500.017	1
387	1150	500.017	0
388	1150	500.017	0
389	1150	500.017	0
390	1150	500.017	0
391	1150	500.017	0
392	1150	500.017	1
393	1150	500.017	0
394	1150	500.017	0
395	1150	500.017	1
396	1151	500.017	5
397	1152	500.017	1281.4839978904
398	1152	500.017	1051
399	1152	500.017	1
400	1152	500.017	1
401	1152	500.017	0
402	1152	500.017	0
403	1152	500.017	0
404	1152	500.017	0
405	1152	500.017	0
406	1152	500.017	1
407	1152	500.017	1281.4839978904
408	1152	500.017	1
409	1152	500.017	0
410	1152	500.017	1
411	1152	500.017	0
412	1152	500.017	0
413	1152	500.017	0
414	1152	500.017	0
415	1152	500.017	1
416	1152	500.017	0
417	1152	500.017	0
418	1152	500.017	1
419	1153	500.017	5
420	1154	500.017	696.40183076706
421	1154	500.017	1051
422	1154	500.017	1
423	1154	500.017	1
424	1154	500.017	0
425	1154	500.017	0
426	1154	500.017	0
427	1154	500.017	0
428	1154	500.017	0
429	1154	500.017	1
430	1154	500.017	696.40183076706
431	1154	500.017	1
432	1154	500.017	0
433	1154	500.017	1
434	1154	500.017	0
435	1154	500.017	0
436	1154	500.017	0
437	1154	500.017	0
438	1154	500.017	1
439	1154	500.017	0
440	1154	500.017	0
441	1154	500.017	1
442	1155	500.017	5
443	1156	500.017	60.185642615368
444	1156	500.017	1051
445	1156	500.017	1
446	1156	500.017	0
447	1156	500.017	1
448	1156	500.017	0
449	1156	500.017	0
450	1156	500.017	0
451	1156	500.017	0
452	1156	500.017	1
453	1156	500.017	60.185642615368
454	1156	500.017	1
455	1156	500.017	1
456	1156	500.017	0
457	1156	500.017	0
458	1156	500.017	0
459	1156	500.017	0
460	1156	500.017	0
461	1156	500.017	1
462	1156	500.017	0
463	1156	500.017	0
464	1156	500.017	1
465	1158	500.017	1118.4846020087
466	1158	500.017	1051
467	1158	500.017	1
468	1158	500.017	1
469	1158	500.017	0
470	1158	500.017	0
471	1158	500.017	0
472	1158	500.017	0
473	1158	500.017	0
474	1158	500.017	1
475	1158	500.017	1118.4846020087
476	1158	500.017	1
477	1158	500.017	0
478	1158	500.017	1
479	1158	500.017	0
480	1158	500.017	0
481	1158	500.017	0
482	1158	500.017	0
483	1158	500.017	1
484	1158	500.017	0
485	1158	500.017	0
486	1158	500.017	1
487	1159	500.017	5
488	1160	500.017	203.5504982312
489	1160	500.017	1051
490	1160	500.017	1
491	1160	500.017	0
492	1160	500.017	1
493	1160	500.017	0
494	1160	500.017	0
495	1160	500.017	0
496	1160	500.017	0
497	1160	500.017	1
498	1160	500.017	203.5504982312
499	1160	500.017	1
500	1160	500.017	1
501	1160	500.017	0
502	1160	500.017	0
503	1160	500.017	0
504	1160	500.017	0
505	1160	500.017	0
506	1160	500.017	1
507	1160	500.017	0
508	1160	500.017	0
509	1160	500.017	1
510	1161	500.017	5
511	1162	500.017	677.44890500615
512	1162	500.017	1051
513	1162	500.017	1
514	1162	500.017	1
515	1162	500.017	0
516	1162	500.017	0
517	1162	500.017	0
518	1162	500.017	0
519	1162	500.017	0
520	1162	500.017	1
521	1162	500.017	677.44890500615
522	1162	500.017	1
523	1162	500.017	0
524	1162	500.017	1
525	1162	500.017	0
526	1162	500.017	0
527	1162	500.017	0
528	1162	500.017	0
529	1162	500.017	1
530	1162	500.017	0
531	1162	500.017	0
532	1162	500.017	1
533	1163	500.017	5
534	1164	500.017	1389.8963060294
535	1164	500.017	1051
536	1164	500.017	1
537	1164	500.017	1
538	1164	500.017	0
539	1164	500.017	0
540	1164	500.017	0
541	1164	500.017	0
542	1164	500.017	0
543	1164	500.017	1
544	1164	500.017	1389.8963060294
545	1164	500.017	1
546	1164	500.017	0
547	1164	500.017	1
548	1164	500.017	0
549	1164	500.017	0
550	1164	500.017	0
551	1164	500.017	0
552	1164	500.017	1
553	1164	500.017	0
554	1164	500.017	0
555	1164	500.017	1
556	1165	500.017	5
557	1166	500.017	957.82217567106
558	1166	500.017	1051
559	1166	500.017	1
560	1166	500.017	1
561	1166	500.017	0
562	1166	500.017	0
563	1166	500.017	0
564	1166	500.017	0
565	1166	500.017	0
566	1166	500.017	1
567	1166	500.017	957.82217567106
568	1166	500.017	1
569	1166	500.017	0
570	1166	500.017	1
571	1166	500.017	0
572	1166	500.017	0
573	1166	500.017	0
574	1166	500.017	0
575	1166	500.017	1
576	1166	500.017	0
577	1166	500.017	0
578	1166	500.017	1
579	1167	500.017	5
580	1168	500.017	1088.009936374
581	1168	500.017	1051
582	1168	500.017	1
583	1168	500.017	1
584	1168	500.017	0
585	1168	500.017	0
586	1168	500.017	0
587	1168	500.017	0
588	1168	500.017	0
589	1168	500.017	1
590	1168	500.017	1088.009936374
591	1168	500.017	1
592	1168	500.017	0
593	1168	500.017	1
594	1168	500.017	0
595	1168	500.017	0
596	1168	500.017	0
597	1168	500.017	0
598	1168	500.017	1
599	1168	500.017	0
600	1168	500.017	0
601	1168	500.017	1
602	1169	500.017	5
602	1699	500.024	0
603	1170	500.017	842.45983389841
604	1170	500.017	1051
605	1170	500.017	1
606	1170	500.017	1
607	1170	500.017	0
608	1170	500.017	0
609	1170	500.017	0
610	1170	500.017	0
611	1170	500.017	0
612	1170	500.017	1
613	1170	500.017	842.45983389841
614	1170	500.017	1
615	1170	500.017	0
616	1170	500.017	1
617	1170	500.017	0
618	1170	500.017	0
619	1170	500.017	0
620	1170	500.017	0
621	1170	500.017	1
622	1170	500.017	0
623	1170	500.017	0
624	1170	500.017	1
625	1171	500.017	5
626	1172	500.017	680.07860309647
627	1172	500.017	1051
628	1172	500.017	1
629	1172	500.017	1
630	1172	500.017	0
631	1172	500.017	0
632	1172	500.017	0
633	1172	500.017	0
634	1172	500.017	0
635	1172	500.017	1
636	1172	500.017	680.07860309647
637	1172	500.017	1
638	1172	500.017	0
639	1172	500.017	1
640	1172	500.017	0
641	1172	500.017	0
642	1172	500.017	0
643	1172	500.017	0
644	1172	500.017	1
645	1172	500.017	0
646	1172	500.017	0
647	1172	500.017	1
648	1173	500.017	5
649	1174	500.017	1051.0935087002
650	1174	500.017	1051
651	1174	500.017	1
652	1174	500.017	1
653	1174	500.017	0
654	1174	500.017	0
655	1174	500.017	0
656	1174	500.017	0
657	1174	500.017	0
658	1174	500.017	1
659	1174	500.017	1051.0935087002
660	1174	500.017	1
661	1174	500.017	0
662	1174	500.017	1
663	1174	500.017	0
664	1174	500.017	0
665	1174	500.017	0
666	1174	500.017	0
667	1174	500.017	1
668	1174	500.017	0
669	1174	500.017	0
670	1174	500.017	1
671	1175	500.017	5
672	1176	500.017	926.38907341746
673	1176	500.017	1051
674	1176	500.017	1
675	1176	500.017	1
676	1176	500.017	0
677	1176	500.017	0
678	1176	500.017	0
679	1176	500.017	0
680	1176	500.017	0
681	1176	500.017	1
682	1176	500.017	926.38907341746
683	1176	500.017	1
684	1176	500.017	0
685	1176	500.017	1
686	1176	500.017	0
687	1176	500.017	0
688	1176	500.017	0
689	1176	500.017	0
690	1176	500.017	1
691	1176	500.017	0
692	1176	500.017	0
693	1176	500.017	1
694	1177	500.017	5
695	1178	500.017	1013.8371534719
696	1178	500.017	1051
697	1178	500.017	1
698	1178	500.017	1
699	1178	500.017	0
700	1178	500.017	0
701	1178	500.017	0
702	1178	500.017	0
703	1178	500.017	0
704	1178	500.017	1
705	1178	500.017	1013.8371534719
706	1178	500.017	1
707	1178	500.017	0
708	1178	500.017	1
709	1178	500.017	0
710	1178	500.017	0
711	1178	500.017	0
712	1178	500.017	0
713	1178	500.017	1
714	1178	500.017	0
715	1178	500.017	0
716	1178	500.017	1
717	1179	500.017	5
718	1180	500.017	299.78140932472
719	1180	500.017	1051
720	1180	500.017	1
721	1180	500.017	0
722	1180	500.017	1
723	1180	500.017	0
724	1180	500.017	0
725	1180	500.017	0
726	1180	500.017	0
727	1180	500.017	1
728	1180	500.017	299.78140932472
729	1180	500.017	1
730	1180	500.017	1
731	1180	500.017	0
732	1180	500.017	0
733	1180	500.017	0
734	1180	500.017	0
735	1180	500.017	0
736	1180	500.017	1
737	1180	500.017	0
738	1180	500.017	0
739	1180	500.017	1
740	1181	500.017	5
740	1218	500.018	0
741	1182	500.017	234.47911966417
742	1182	500.017	1051
743	1182	500.017	1
744	1182	500.017	0
745	1182	500.017	1
746	1182	500.017	0
747	1182	500.017	0
748	1182	500.017	0
749	1182	500.017	0
750	1182	500.017	1
751	1182	500.017	234.47911966417
752	1182	500.017	1
753	1182	500.017	1
754	1182	500.017	0
755	1182	500.017	0
756	1182	500.017	0
757	1182	500.017	0
758	1182	500.017	0
759	1182	500.017	1
760	1182	500.017	0
761	1182	500.017	0
762	1182	500.017	1
763	1183	500.017	5
764	1184	500.017	530.33965510754
765	1184	500.017	1051
766	1184	500.017	1
767	1184	500.017	0
768	1184	500.017	1
769	1184	500.017	0
770	1184	500.017	0
771	1184	500.017	0
772	1184	500.017	0
773	1184	500.017	1
774	1184	500.017	530.33965510754
775	1184	500.017	1
776	1184	500.017	1
777	1184	500.017	0
778	1184	500.017	0
779	1184	500.017	0
780	1184	500.017	0
781	1184	500.017	0
782	1184	500.017	1
783	1184	500.017	0
784	1184	500.017	0
785	1184	500.017	1
786	1185	500.017	5
787	1186	500.017	1272.303727515
788	1186	500.017	1051
789	1186	500.017	1
790	1186	500.017	1
791	1186	500.017	0
792	1186	500.017	0
793	1186	500.017	0
794	1186	500.017	0
795	1186	500.017	0
796	1186	500.017	1
797	1186	500.017	1272.303727515
798	1186	500.017	1
799	1186	500.017	0
800	1186	500.017	1
801	1186	500.017	0
802	1186	500.017	0
803	1186	500.017	0
804	1186	500.017	0
805	1186	500.017	1
806	1186	500.017	0
807	1186	500.017	0
808	1186	500.017	1
809	1187	500.017	5
810	1213	500.018	0.0033670033670034
811	1213	500.018	0.0033670033670034
812	1218	500.018	0
812	1348	500.018	3
813	1221	500.018	0
813	1351	500.018	0
814	1222	500.018	0.0033670033670034
815	1223	500.018	0.002
816	1223	500.018	3
817	1226	500.018	1
818	1226	500.018	0
819	1227	500.018	0.01
820	1227	500.018	1
821	1228	500.018	0.002
822	1228	500.018	3
823	1231	500.018	1
824	1231	500.018	0
825	1232	500.018	0.01
826	1232	500.018	1
827	1233	500.018	0.002
828	1233	500.018	3
829	1236	500.018	1
830	1236	500.018	0
831	1237	500.018	0.01
832	1237	500.018	1
833	1238	500.018	0.002
834	1238	500.018	3
835	1241	500.018	1
836	1241	500.018	0
837	1242	500.018	0.01
838	1242	500.018	1
839	1243	500.018	0.002
840	1243	500.018	3
841	1246	500.018	1
842	1246	500.018	0
843	1247	500.018	0.01
844	1247	500.018	1
845	1248	500.018	0.002
846	1248	500.018	3
847	1251	500.018	1
848	1251	500.018	0
849	1252	500.018	0.01
850	1252	500.018	1
851	1253	500.018	0.002
852	1253	500.018	3
853	1256	500.018	1
854	1256	500.018	0
855	1257	500.018	0.01
856	1257	500.018	1
857	1258	500.018	0.002
858	1258	500.018	3
859	1261	500.018	1
860	1261	500.018	0
861	1262	500.018	0.01
862	1262	500.018	1
863	1263	500.018	0.002
864	1263	500.018	3
865	1266	500.018	1
866	1266	500.018	0
867	1267	500.018	0.01
868	1267	500.018	1
869	1268	500.018	0.002
870	1268	500.018	3
871	1271	500.018	1
872	1271	500.018	0
873	1272	500.018	0.01
874	1272	500.018	1
875	1273	500.018	0.002
876	1273	500.018	3
877	1276	500.018	1
878	1276	500.018	0
879	1277	500.018	0.01
880	1277	500.018	1
881	1278	500.018	0.002
882	1278	500.018	3
883	1281	500.018	1
884	1281	500.018	0
885	1282	500.018	0.01
886	1282	500.018	1
887	1283	500.018	0.002
888	1283	500.018	3
889	1286	500.018	1
890	1286	500.018	0
891	1287	500.018	0.01
892	1287	500.018	1
893	1288	500.018	0.002
894	1291	500.018	1
895	1292	500.018	0.01
896	1292	500.018	1
897	1293	500.018	0.002
898	1293	500.018	3
899	1296	500.018	1
900	1296	500.018	0
901	1297	500.018	0.01
902	1297	500.018	1
903	1298	500.018	0.002
904	1298	500.018	3
905	1301	500.018	1
906	1301	500.018	0
907	1302	500.018	0.01
908	1302	500.018	1
909	1303	500.018	0.002
910	1303	500.018	3
911	1306	500.018	1
912	1306	500.018	0
913	1307	500.018	0.01
914	1307	500.018	1
915	1308	500.018	0.002
916	1308	500.018	3
917	1311	500.018	1
918	1311	500.018	0
919	1312	500.018	0.01
920	1312	500.018	1
921	1313	500.018	0.002
922	1313	500.018	3
923	1316	500.018	1
924	1316	500.018	0
925	1317	500.018	0.01
926	1317	500.018	1
927	1318	500.018	0.002
928	1318	500.018	3
928	1699	500.024	0
929	1321	500.018	1
930	1321	500.018	0
930	1702	500.024	0
931	1322	500.018	0.01
932	1322	500.018	1
933	1323	500.018	0.002
934	1323	500.018	3
935	1326	500.018	1
936	1326	500.018	0
937	1327	500.018	0.01
938	1327	500.018	1
939	1328	500.018	0.002
940	1328	500.018	3
941	1331	500.018	1
942	1331	500.018	0
943	1332	500.018	0.01
944	1332	500.018	1
945	1333	500.018	0.002
946	1333	500.018	3
947	1336	500.018	1
948	1336	500.018	0
949	1337	500.018	0.01
950	1337	500.018	1
951	1338	500.018	0.002
952	1338	500.018	3
953	1341	500.018	1
954	1341	500.018	0
955	1342	500.018	0.01
956	1342	500.018	1
957	1343	500.018	0.002
958	1343	500.018	3
959	1346	500.018	1
960	1346	500.018	0
961	1347	500.018	0.01
962	1347	500.018	1
963	1348	500.018	0.002
964	1351	500.018	1
965	1352	500.018	0.01
966	1352	500.018	1
967	1354	500.018	0.002
968	1354	500.018	3
969	1357	500.018	1
970	1357	500.018	0
971	1358	500.018	0.01
972	1358	500.018	1
973	1359	500.018	0.002
974	1359	500.018	3
975	1362	500.018	1
976	1362	500.018	0
977	1363	500.018	0.01
978	1363	500.018	1
979	1364	500.018	0.002
980	1364	500.018	3
981	1367	500.018	1
982	1367	500.018	0
983	1368	500.018	0.01
984	1368	500.018	1
985	1688	500.024	0.0033670033670034
986	1688	500.024	0.0033670033670034
987	1703	500.024	0.0033670033670034

