file 215224 1658387794                                          
version 2
run Hackathon114-0-20220721-16:02:03-9932
attr configname Hackathon114
attr datetime 20220721-16:02:03
attr experiment Hackathon114
attr inifile omnetpp.ini
attr iterationvars ""
attr iterationvarsf ""
attr measurement ""
attr network lte.simulations.Mode4.Highway
attr processid 9932
attr repetition 0
attr replication #0
attr resultdir results
attr runnumber 0
attr seedset 0
param *.car[*].d2dCapable true
param *.car[*].mode4D2D true
param **.amcMode "\"D2D\""
param *.car[*].applType "\"Mode4App\""
param *.car[*].appl.packetSize 190
param *.car[*].nicType "\"LteNicVUeMode4\""
param *.car[*].lteNic.d2dCapable true
param *.car[*].lteNic.pdcpRrc.ipBased false
param *.car[*].lteNic.rlc.ipBased false
param *.car[*].lteNic.mac.subchannelSize 16
param *.car[*].lteNic.mac.numSubchannels 3
param *.car[*].lteNic.mac.probResourceKeep 0.4
param *.car[*].lteNic.mac.useCBR false
param *.car[*].lteNic.mac.crLimit false
param *.car[*].lteNic.mac.rriLookup false
param *.car[*].lteNic.mac.dccMechanism false
param *.car[*].lteNic.mac.packetDropping false
param *.car[*].lteNic.mac.reselectAfter 1
param *.car[*].lteNic.mac.adjacencyPSCCHPSSCH true
param *.car[*].lteNic.rlc.um.scenario3gpp false
param *.car[*].lteNic.phy.subchannelSize 16
param *.car[*].lteNic.phy.numSubchannels 3
param *.car[*].lteNic.phy.selectionWindowStartingSubframe 1
param *.car[*].lteNic.phy.adjacencyPSCCHPSSCH true
param *.car[*].lteNic.phy.pStep 100
param *.car[*].lteNic.phy.thresholdRSSI 10
param *.car[*].ueTxPower 23
param *.car[*].lteNic.phy.d2dTxPower 23
param *.**.nic.lteNic.phy.usePropagationDelay true
param *.visualizer.mediumVisualizer.displaySignals true
param *.visualizer.physicalLinkVisualizer.displayLinks true
param *.visualizer.physicalLinkVisualizer.packetFilter "\"Mode4Data*\""
param **.usePreconfiguredTxParams true
param **.lteNic.mac.txConfig "xmldoc(\"sidelink_configuration.xml\")"
param **.coreDebug false
param **.routingRecorder.enabled false
param *.playgroundSizeX 2000000m
param *.playgroundSizeY 2000000m
param *.playgroundSizeZ 50m
param **.channelControl.pMax 10W
param **.channelControl.alpha 1.0
param **.channelControl.carrierFrequency 6000e+6Hz
param **.lteNic.phy.channelModel "xmldoc(\"config_channel.xml\")"
param **.feedbackComputation "xmldoc(\"config_channel.xml\")"
param **.rbAllocationType "\"localized\""
param **.feedbackType "\"ALLBANDS\""
param **.feedbackGeneratorType "\"IDEAL\""
param **.maxHarqRtx 0
param **.deployer.ruRange 50
param **.deployer.ruTxPower "\"50,50,50;\""
param **.deployer.antennaCws "\"2;\""
param **.deployer.numRbDl 51
param **.deployer.numRbUl 48
param **.numBands 48
param **.fbDelay 1
param *.veinsManager.moduleType "\"lte.corenetwork.nodes.cars.CarIPv6\""
param *.veinsManager.moduleName "\"car\""
param *.veinsManager.moduleDisplayString "\"\""
param *.veinsManager.launchConfig "xmldoc(\"highway/006vpm/highway.launchd.xml\")"
param *.veinsManager.updateInterval 0.1s
param *.veinsManager.firstStepAt 500s
param *.car[*].mobilityType "\"VeinsInetMobility\""
param **.deployer.positionUpdateInterval 0.01s

vector 0 Highway.car[0].lteNic.phy servingCell:vector ETV
attr source servingCell
attr title "ID of the serving eNodeB for the UE, vector"
attr unit ""
vector 1 Highway.car[0].lteNic.mac macNodeID:vector ETV
attr source macNodeID
attr title "Reports Mac NodeID to allow for trans to nodeID, vector"
vector 2 Highway.car[1].lteNic.phy servingCell:vector ETV
attr source servingCell
attr title "ID of the serving eNodeB for the UE, vector"
attr unit ""
vector 3 Highway.car[1].lteNic.mac macNodeID:vector ETV
attr source macNodeID
attr title "Reports Mac NodeID to allow for trans to nodeID, vector"
vector 4 Highway.car[2].lteNic.phy servingCell:vector ETV
attr source servingCell
attr title "ID of the serving eNodeB for the UE, vector"
attr unit ""
vector 5 Highway.car[2].lteNic.mac macNodeID:vector ETV
attr source macNodeID
attr title "Reports Mac NodeID to allow for trans to nodeID, vector"
vector 6 Highway.car[3].lteNic.phy servingCell:vector ETV
attr source servingCell
attr title "ID of the serving eNodeB for the UE, vector"
attr unit ""
vector 7 Highway.car[3].lteNic.mac macNodeID:vector ETV
attr source macNodeID
attr title "Reports Mac NodeID to allow for trans to nodeID, vector"
vector 8 Highway.car[4].lteNic.phy servingCell:vector ETV
attr source servingCell
attr title "ID of the serving eNodeB for the UE, vector"
attr unit ""
vector 9 Highway.car[4].lteNic.mac macNodeID:vector ETV
attr source macNodeID
attr title "Reports Mac NodeID to allow for trans to nodeID, vector"
vector 10 Highway.car[5].lteNic.phy servingCell:vector ETV
attr source servingCell
attr title "ID of the serving eNodeB for the UE, vector"
attr unit ""
vector 11 Highway.car[5].lteNic.mac macNodeID:vector ETV
attr source macNodeID
attr title "Reports Mac NodeID to allow for trans to nodeID, vector"
vector 12 Highway.car[6].lteNic.phy servingCell:vector ETV
attr source servingCell
attr title "ID of the serving eNodeB for the UE, vector"
attr unit ""
vector 13 Highway.car[6].lteNic.mac macNodeID:vector ETV
attr source macNodeID
attr title "Reports Mac NodeID to allow for trans to nodeID, vector"
vector 14 Highway.car[7].lteNic.phy servingCell:vector ETV
attr source servingCell
attr title "ID of the serving eNodeB for the UE, vector"
attr unit ""
vector 15 Highway.car[7].lteNic.mac macNodeID:vector ETV
attr source macNodeID
attr title "Reports Mac NodeID to allow for trans to nodeID, vector"
vector 16 Highway.car[8].lteNic.phy servingCell:vector ETV
attr source servingCell
attr title "ID of the serving eNodeB for the UE, vector"
attr unit ""
vector 17 Highway.car[8].lteNic.mac macNodeID:vector ETV
attr source macNodeID
attr title "Reports Mac NodeID to allow for trans to nodeID, vector"
vector 18 Highway.car[9].lteNic.phy servingCell:vector ETV
attr source servingCell
attr title "ID of the serving eNodeB for the UE, vector"
attr unit ""
vector 19 Highway.car[9].lteNic.mac macNodeID:vector ETV
attr source macNodeID
attr title "Reports Mac NodeID to allow for trans to nodeID, vector"
vector 20 Highway.car[10].lteNic.phy servingCell:vector ETV
attr source servingCell
attr title "ID of the serving eNodeB for the UE, vector"
attr unit ""
vector 21 Highway.car[10].lteNic.mac macNodeID:vector ETV
attr source macNodeID
attr title "Reports Mac NodeID to allow for trans to nodeID, vector"
vector 22 Highway.car[11].lteNic.phy servingCell:vector ETV
attr source servingCell
attr title "ID of the serving eNodeB for the UE, vector"
attr unit ""
vector 23 Highway.car[11].lteNic.mac macNodeID:vector ETV
attr source macNodeID
attr title "Reports Mac NodeID to allow for trans to nodeID, vector"
vector 24 Highway.car[12].lteNic.phy servingCell:vector ETV
attr source servingCell
attr title "ID of the serving eNodeB for the UE, vector"
attr unit ""
vector 25 Highway.car[12].lteNic.mac macNodeID:vector ETV
attr source macNodeID
attr title "Reports Mac NodeID to allow for trans to nodeID, vector"
vector 26 Highway.car[13].lteNic.phy servingCell:vector ETV
attr source servingCell
attr title "ID of the serving eNodeB for the UE, vector"
attr unit ""
vector 27 Highway.car[13].lteNic.mac macNodeID:vector ETV
attr source macNodeID
attr title "Reports Mac NodeID to allow for trans to nodeID, vector"
vector 28 Highway.car[14].lteNic.phy servingCell:vector ETV
attr source servingCell
attr title "ID of the serving eNodeB for the UE, vector"
attr unit ""
vector 29 Highway.car[14].lteNic.mac macNodeID:vector ETV
attr source macNodeID
attr title "Reports Mac NodeID to allow for trans to nodeID, vector"
vector 30 Highway.car[15].lteNic.phy servingCell:vector ETV
attr source servingCell
attr title "ID of the serving eNodeB for the UE, vector"
attr unit ""
vector 31 Highway.car[15].lteNic.mac macNodeID:vector ETV
attr source macNodeID
attr title "Reports Mac NodeID to allow for trans to nodeID, vector"
vector 32 Highway.car[16].lteNic.phy servingCell:vector ETV
attr source servingCell
attr title "ID of the serving eNodeB for the UE, vector"
attr unit ""
vector 33 Highway.car[16].lteNic.mac macNodeID:vector ETV
attr source macNodeID
attr title "Reports Mac NodeID to allow for trans to nodeID, vector"
vector 34 Highway.car[17].lteNic.phy servingCell:vector ETV
attr source servingCell
attr title "ID of the serving eNodeB for the UE, vector"
attr unit ""
vector 35 Highway.car[17].lteNic.mac macNodeID:vector ETV
attr source macNodeID
attr title "Reports Mac NodeID to allow for trans to nodeID, vector"
vector 36 Highway.car[18].lteNic.phy servingCell:vector ETV
attr source servingCell
attr title "ID of the serving eNodeB for the UE, vector"
attr unit ""
vector 37 Highway.car[18].lteNic.mac macNodeID:vector ETV
attr source macNodeID
attr title "Reports Mac NodeID to allow for trans to nodeID, vector"
vector 38 Highway.car[19].lteNic.phy servingCell:vector ETV
attr source servingCell
attr title "ID of the serving eNodeB for the UE, vector"
attr unit ""
vector 39 Highway.car[19].lteNic.mac macNodeID:vector ETV
attr source macNodeID
attr title "Reports Mac NodeID to allow for trans to nodeID, vector"
vector 40 Highway.car[20].lteNic.phy servingCell:vector ETV
attr source servingCell
attr title "ID of the serving eNodeB for the UE, vector"
attr unit ""
vector 41 Highway.car[20].lteNic.mac macNodeID:vector ETV
attr source macNodeID
attr title "Reports Mac NodeID to allow for trans to nodeID, vector"
vector 42 Highway.car[21].lteNic.phy servingCell:vector ETV
attr source servingCell
attr title "ID of the serving eNodeB for the UE, vector"
attr unit ""
vector 43 Highway.car[21].lteNic.mac macNodeID:vector ETV
attr source macNodeID
attr title "Reports Mac NodeID to allow for trans to nodeID, vector"
vector 44 Highway.car[22].lteNic.phy servingCell:vector ETV
attr source servingCell
attr title "ID of the serving eNodeB for the UE, vector"
attr unit ""
vector 45 Highway.car[22].lteNic.mac macNodeID:vector ETV
attr source macNodeID
attr title "Reports Mac NodeID to allow for trans to nodeID, vector"
vector 46 Highway.car[23].lteNic.phy servingCell:vector ETV
attr source servingCell
attr title "ID of the serving eNodeB for the UE, vector"
attr unit ""
vector 47 Highway.car[23].lteNic.mac macNodeID:vector ETV
attr source macNodeID
attr title "Reports Mac NodeID to allow for trans to nodeID, vector"
vector 48 Highway.car[24].lteNic.phy servingCell:vector ETV
attr source servingCell
attr title "ID of the serving eNodeB for the UE, vector"
attr unit ""
vector 49 Highway.car[24].lteNic.mac macNodeID:vector ETV
attr source macNodeID
attr title "Reports Mac NodeID to allow for trans to nodeID, vector"
vector 50 Highway.car[25].lteNic.phy servingCell:vector ETV
attr source servingCell
attr title "ID of the serving eNodeB for the UE, vector"
attr unit ""
vector 51 Highway.car[25].lteNic.mac macNodeID:vector ETV
attr source macNodeID
attr title "Reports Mac NodeID to allow for trans to nodeID, vector"
vector 52 Highway.car[26].lteNic.phy servingCell:vector ETV
attr source servingCell
attr title "ID of the serving eNodeB for the UE, vector"
attr unit ""
vector 53 Highway.car[26].lteNic.mac macNodeID:vector ETV
attr source macNodeID
attr title "Reports Mac NodeID to allow for trans to nodeID, vector"
vector 54 Highway.car[27].lteNic.phy servingCell:vector ETV
attr source servingCell
attr title "ID of the serving eNodeB for the UE, vector"
attr unit ""
vector 55 Highway.car[27].lteNic.mac macNodeID:vector ETV
attr source macNodeID
attr title "Reports Mac NodeID to allow for trans to nodeID, vector"
vector 56 Highway.car[28].lteNic.phy servingCell:vector ETV
attr source servingCell
attr title "ID of the serving eNodeB for the UE, vector"
attr unit ""
vector 57 Highway.car[28].lteNic.mac macNodeID:vector ETV
attr source macNodeID
attr title "Reports Mac NodeID to allow for trans to nodeID, vector"
vector 58 Highway.car[29].lteNic.phy servingCell:vector ETV
attr source servingCell
attr title "ID of the serving eNodeB for the UE, vector"
attr unit ""
vector 59 Highway.car[29].lteNic.mac macNodeID:vector ETV
attr source macNodeID
attr title "Reports Mac NodeID to allow for trans to nodeID, vector"
vector 60 Highway.car[0].lteNic.phy posX:vector ETV
attr source posX
attr title "X position of node (at reception time), vector"
vector 61 Highway.car[0].lteNic.phy posY:vector ETV
attr source posY
attr title "Y position of node (at reception time), vector"
vector 62 Highway.car[1].lteNic.phy posX:vector ETV
attr source posX
attr title "X position of node (at reception time), vector"
vector 63 Highway.car[1].lteNic.phy posY:vector ETV
attr source posY
attr title "Y position of node (at reception time), vector"
vector 64 Highway.car[2].lteNic.phy posX:vector ETV
attr source posX
attr title "X position of node (at reception time), vector"
vector 65 Highway.car[2].lteNic.phy posY:vector ETV
attr source posY
attr title "Y position of node (at reception time), vector"
vector 66 Highway.car[3].lteNic.phy posX:vector ETV
attr source posX
attr title "X position of node (at reception time), vector"
vector 67 Highway.car[3].lteNic.phy posY:vector ETV
attr source posY
attr title "Y position of node (at reception time), vector"
vector 68 Highway.car[4].lteNic.phy posX:vector ETV
attr source posX
attr title "X position of node (at reception time), vector"
vector 69 Highway.car[4].lteNic.phy posY:vector ETV
attr source posY
attr title "Y position of node (at reception time), vector"
vector 70 Highway.car[5].lteNic.phy posX:vector ETV
attr source posX
attr title "X position of node (at reception time), vector"
vector 71 Highway.car[5].lteNic.phy posY:vector ETV
attr source posY
attr title "Y position of node (at reception time), vector"
vector 72 Highway.car[6].lteNic.phy posX:vector ETV
attr source posX
attr title "X position of node (at reception time), vector"
vector 73 Highway.car[6].lteNic.phy posY:vector ETV
attr source posY
attr title "Y position of node (at reception time), vector"
vector 74 Highway.car[7].lteNic.phy posX:vector ETV
attr source posX
attr title "X position of node (at reception time), vector"
vector 75 Highway.car[7].lteNic.phy posY:vector ETV
attr source posY
attr title "Y position of node (at reception time), vector"
vector 76 Highway.car[8].lteNic.phy posX:vector ETV
attr source posX
attr title "X position of node (at reception time), vector"
vector 77 Highway.car[8].lteNic.phy posY:vector ETV
attr source posY
attr title "Y position of node (at reception time), vector"
vector 78 Highway.car[9].lteNic.phy posX:vector ETV
attr source posX
attr title "X position of node (at reception time), vector"
vector 79 Highway.car[9].lteNic.phy posY:vector ETV
attr source posY
attr title "Y position of node (at reception time), vector"
vector 80 Highway.car[10].lteNic.phy posX:vector ETV
attr source posX
attr title "X position of node (at reception time), vector"
vector 81 Highway.car[10].lteNic.phy posY:vector ETV
attr source posY
attr title "Y position of node (at reception time), vector"
vector 82 Highway.car[11].lteNic.phy posX:vector ETV
attr source posX
attr title "X position of node (at reception time), vector"
vector 83 Highway.car[11].lteNic.phy posY:vector ETV
attr source posY
attr title "Y position of node (at reception time), vector"
vector 84 Highway.car[12].lteNic.phy posX:vector ETV
attr source posX
attr title "X position of node (at reception time), vector"
vector 85 Highway.car[12].lteNic.phy posY:vector ETV
attr source posY
attr title "Y position of node (at reception time), vector"
vector 86 Highway.car[13].lteNic.phy posX:vector ETV
attr source posX
attr title "X position of node (at reception time), vector"
vector 87 Highway.car[13].lteNic.phy posY:vector ETV
attr source posY
attr title "Y position of node (at reception time), vector"
vector 88 Highway.car[13].lteNic.phy cbr:vector ETV
attr source cbr
attr title "Channel Busy Ratio, vector"
vector 89 Highway.car[13].lteNic.phy cbrPscch:vector ETV
attr source cbrPscch
attr title "Channel Busy Ratio for PSCCH, vector"
vector 90 Highway.car[14].lteNic.phy posX:vector ETV
attr source posX
attr title "X position of node (at reception time), vector"
vector 91 Highway.car[14].lteNic.phy posY:vector ETV
attr source posY
attr title "Y position of node (at reception time), vector"
vector 92 Highway.car[15].lteNic.phy posX:vector ETV
attr source posX
attr title "X position of node (at reception time), vector"
vector 93 Highway.car[15].lteNic.phy posY:vector ETV
attr source posY
attr title "Y position of node (at reception time), vector"
vector 94 Highway.car[16].lteNic.phy posX:vector ETV
attr source posX
attr title "X position of node (at reception time), vector"
vector 95 Highway.car[16].lteNic.phy posY:vector ETV
attr source posY
attr title "Y position of node (at reception time), vector"
vector 96 Highway.car[17].lteNic.phy posX:vector ETV
attr source posX
attr title "X position of node (at reception time), vector"
vector 97 Highway.car[17].lteNic.phy posY:vector ETV
attr source posY
attr title "Y position of node (at reception time), vector"
vector 98 Highway.car[18].lteNic.phy posX:vector ETV
attr source posX
attr title "X position of node (at reception time), vector"
vector 99 Highway.car[18].lteNic.phy posY:vector ETV
attr source posY
attr title "Y position of node (at reception time), vector"
vector 100 Highway.car[19].lteNic.phy posX:vector ETV
attr source posX
attr title "X position of node (at reception time), vector"
vector 101 Highway.car[19].lteNic.phy posY:vector ETV
attr source posY
attr title "Y position of node (at reception time), vector"
vector 102 Highway.car[20].lteNic.phy posX:vector ETV
attr source posX
attr title "X position of node (at reception time), vector"
vector 103 Highway.car[20].lteNic.phy posY:vector ETV
attr source posY
attr title "Y position of node (at reception time), vector"
vector 104 Highway.car[21].lteNic.phy posX:vector ETV
attr source posX
attr title "X position of node (at reception time), vector"
vector 105 Highway.car[21].lteNic.phy posY:vector ETV
attr source posY
attr title "Y position of node (at reception time), vector"
vector 106 Highway.car[22].lteNic.phy posX:vector ETV
attr source posX
attr title "X position of node (at reception time), vector"
vector 107 Highway.car[22].lteNic.phy posY:vector ETV
attr source posY
attr title "Y position of node (at reception time), vector"
vector 108 Highway.car[23].lteNic.phy posX:vector ETV
attr source posX
attr title "X position of node (at reception time), vector"
vector 109 Highway.car[23].lteNic.phy posY:vector ETV
attr source posY
attr title "Y position of node (at reception time), vector"
vector 110 Highway.car[24].lteNic.phy posX:vector ETV
attr source posX
attr title "X position of node (at reception time), vector"
vector 111 Highway.car[24].lteNic.phy posY:vector ETV
attr source posY
attr title "Y position of node (at reception time), vector"
vector 112 Highway.car[25].lteNic.phy posX:vector ETV
attr source posX
attr title "X position of node (at reception time), vector"
vector 113 Highway.car[25].lteNic.phy posY:vector ETV
attr source posY
attr title "Y position of node (at reception time), vector"
vector 114 Highway.car[26].lteNic.phy posX:vector ETV
attr source posX
attr title "X position of node (at reception time), vector"
vector 115 Highway.car[26].lteNic.phy posY:vector ETV
attr source posY
attr title "Y position of node (at reception time), vector"
vector 116 Highway.car[27].lteNic.phy posX:vector ETV
attr source posX
attr title "X position of node (at reception time), vector"
vector 117 Highway.car[27].lteNic.phy posY:vector ETV
attr source posY
attr title "Y position of node (at reception time), vector"
vector 118 Highway.car[28].lteNic.phy posX:vector ETV
attr source posX
attr title "X position of node (at reception time), vector"
vector 119 Highway.car[28].lteNic.phy posY:vector ETV
attr source posY
attr title "Y position of node (at reception time), vector"
vector 120 Highway.car[29].lteNic.phy posX:vector ETV
attr source posX
attr title "X position of node (at reception time), vector"
vector 121 Highway.car[29].lteNic.phy posY:vector ETV
attr source posY
attr title "Y position of node (at reception time), vector"
vector 122 Highway.car[13].lteNic.mac receivedPacketFromLowerLayer:vector(packetBytes) ETV
attr interpolationmode none
attr source receivedPacketFromLowerLayer
vector 123 Highway.car[13].lteNic.mac sentPacketToUpperLayer:vector(packetBytes) ETV
attr interpolationmode none
attr source sentPacketToUpperLayer
vector 124 Highway.car[13].lteNic.pdcpRrc sentPacketToUpperLayer:vector(packetBytes) ETV
attr interpolationmode none
attr source sentPacketToUpperLayer
vector 125 Highway.car[13].appl cbr:vector ETV
attr source cbr
attr title "Channel Busy Ratio, vector"
attr unit ""
vector 126 Highway.car[26].appl sentMsg:vector ETV
attr source sentMsg
attr title "Messages sent, vector"
attr unit ""
0	20871 10 2 2 500 500 1 0 0 0 0
1	20881 13 2 2 500 500 1 1025 1025 1025 1050625
2	20894 10 2 2 500 500 1 0 0 0 0
3	20904 13 2 2 500 500 1 1026 1026 1026 1052676
4	20917 10 2 2 500 500 1 0 0 0 0
5	20927 13 2 2 500 500 1 1027 1027 1027 1054729
6	20940 10 2 2 500 500 1 0 0 0 0
7	20950 13 2 2 500 500 1 1028 1028 1028 1056784
8	20963 10 2 2 500 500 1 0 0 0 0
9	20973 13 2 2 500 500 1 1029 1029 1029 1058841
10	20986 11 2 2 500 500 1 0 0 0 0
11	20997 14 2 2 500 500 1 1030 1030 1030 1060900
12	21011 11 2 2 500 500 1 0 0 0 0
13	21022 14 2 2 500 500 1 1031 1031 1031 1062961
14	21036 11 2 2 500 500 1 0 0 0 0
15	21047 14 2 2 500 500 1 1032 1032 1032 1065024
16	21061 11 2 2 500 500 1 0 0 0 0
17	21072 14 2 2 500 500 1 1033 1033 1033 1067089
18	21086 11 2 2 500 500 1 0 0 0 0
19	21097 14 2 2 500 500 1 1034 1034 1034 1069156
20	21111 11 2 2 500 500 1 0 0 0 0
21	21122 14 2 2 500 500 1 1035 1035 1035 1071225
22	21136 11 2 2 500 500 1 0 0 0 0
23	21147 14 2 2 500 500 1 1036 1036 1036 1073296
24	21161 11 2 2 500 500 1 0 0 0 0
25	21172 14 2 2 500 500 1 1037 1037 1037 1075369
26	21186 11 2 2 500 500 1 0 0 0 0
27	21197 14 2 2 500 500 1 1038 1038 1038 1077444
28	21211 11 2 2 500 500 1 0 0 0 0
29	21222 14 2 2 500 500 1 1039 1039 1039 1079521
30	21236 11 2 2 500 500 1 0 0 0 0
31	21247 14 2 2 500 500 1 1040 1040 1040 1081600
32	21261 11 2 2 500 500 1 0 0 0 0
33	21272 14 2 2 500 500 1 1041 1041 1041 1083681
34	21286 11 2 2 500 500 1 0 0 0 0
35	21297 14 2 2 500 500 1 1042 1042 1042 1085764
36	21311 11 2 2 500 500 1 0 0 0 0
37	21322 14 2 2 500 500 1 1043 1043 1043 1087849
38	21336 11 2 2 500 500 1 0 0 0 0
39	21347 14 2 2 500 500 1 1044 1044 1044 1089936
40	21361 11 2 2 500 500 1 0 0 0 0
41	21372 14 2 2 500 500 1 1045 1045 1045 1092025
42	21386 11 2 2 500 500 1 0 0 0 0
43	21397 14 2 2 500 500 1 1046 1046 1046 1094116
44	21411 11 2 2 500 500 1 0 0 0 0
45	21422 14 2 2 500 500 1 1047 1047 1047 1096209
46	21436 11 2 2 500 500 1 0 0 0 0
47	21447 14 2 2 500 500 1 1048 1048 1048 1098304
48	21461 11 2 2 500 500 1 0 0 0 0
49	21472 14 2 2 500 500 1 1049 1049 1049 1100401
50	21486 11 2 2 500 500 1 0 0 0 0
51	21497 14 2 2 500 500 1 1050 1050 1050 1102500
52	21511 11 2 2 500 500 1 0 0 0 0
53	21522 14 2 2 500 500 1 1051 1051 1051 1104601
54	21536 11 2 2 500 500 1 0 0 0 0
55	21547 14 2 2 500 500 1 1052 1052 1052 1106704
56	21561 11 2 2 500 500 1 0 0 0 0
57	21572 14 2 2 500 500 1 1053 1053 1053 1108809
58	21586 11 2 2 500 500 1 0 0 0 0
59	21597 14 2 2 500 500 1 1054 1054 1054 1110916
60	21611 246 33 459 500.001 500.008 8 1648.5827173847 1648.5827173847 13188.661739078 21742599.808476
61	21857 142 33 459 500.001 500.008 8 73 73 584 42632
62	21999 246 34 460 500.001 500.008 8 858.03092034351 858.03092034351 6864.2473627481 5889736.4821243
63	22245 142 34 460 500.001 500.008 8 69 69 552 38088
64	22387 247 35 461 500.001 500.008 8 1571.3193181251 1571.3193181251 12570.554545001 19752355.196106
65	22634 143 35 461 500.001 500.008 8 69 69 552 38088
66	22777 247 36 462 500.001 500.008 8 857.33708933425 857.33708933425 6858.696714674 5880215.0779849
67	23024 143 36 462 500.001 500.008 8 85 85 680 57800
68	23167 247 37 463 500.001 500.008 8 1179.1921529767 1179.1921529767 9433.5372238134 11123953.069134
69	23414 143 37 463 500.001 500.008 8 81 81 648 52488
70	23557 247 38 464 500.001 500.008 8 725.33812106173 725.33812106173 5802.7049684939 4208923.1189229
71	23804 143 38 464 500.001 500.008 8 77 77 616 47432
72	23947 247 39 465 500.001 500.008 8 1889.3915485133 1889.3915485133 15115.132388106 28558403.388748
73	24194 143 39 465 500.001 500.008 8 65 65 520 33800
74	24337 247 40 466 500.001 500.008 8 622.81764393048 622.81764393048 4982.5411514438 3103214.5407289
75	24584 143 40 466 500.001 500.008 8 77 77 616 47432
76	24727 247 41 467 500.001 500.008 8 1993.8148897506 1993.8148897506 15950.519118004 31802382.516728
77	24974 143 41 467 500.001 500.008 8 65 65 520 33800
78	25117 247 42 468 500.001 500.008 8 1230.2542925985 1230.2542925985 9842.0343407878 12108204.995656
79	25364 143 42 468 500.001 500.008 8 85 85 680 57800
80	25507 247 43 469 500.001 500.008 8 1992.6967882282 1992.6967882282 15941.574305825 31766723.918519
81	25754 143 43 469 500.001 500.008 8 81 81 648 52488
82	25897 247 44 470 500.001 500.008 8 678.69876587853 678.69876587853 5429.5901270282 3685056.1184403
83	26144 143 44 470 500.001 500.008 8 85 85 680 57800
84	26287 247 45 471 500.001 500.008 8 1264.0681827582 1264.0681827582 10112.545462066 12782946.965293
85	26534 143 45 471 500.001 500.008 8 65 65 520 33800
86	26677 247 46 472 500.001 500.008 8 1900.1301903268 1900.1301903268 15201.041522614 28883957.92153
87	26924 143 46 472 500.001 500.008 8 81 81 648 52488
88	27067 16 46 46 500.001 500.001 1 0 0 0 0
89	27083 16 46 46 500.001 500.001 1 0 0 0 0
90	27099 247 47 473 500.001 500.008 8 841.87698942519 841.87698942519 6735.0159154016 5670054.922589
91	27346 143 47 473 500.001 500.008 8 65 65 520 33800
92	27489 247 48 474 500.001 500.008 8 1756.6715716193 1756.6715716193 14053.372572954 24687160.084283
93	27736 143 48 474 500.001 500.008 8 81 81 648 52488
94	27879 247 49 475 500.001 500.008 8 1282.7456678744 1282.7456678744 10261.965342995 13163491.587604
95	28126 143 49 475 500.001 500.008 8 81 81 648 52488
96	28269 247 50 476 500.001 500.008 8 570.28645773947 570.28645773947 4562.2916619157 2601813.1510482
97	28516 143 50 476 500.001 500.008 8 85 85 680 57800
98	28659 247 51 477 500.001 500.008 8 1002.3689404153 1002.3689404153 8018.9515233226 8037947.9416746
99	28906 143 51 477 500.001 500.008 8 81 81 648 52488
100	29049 255 52 478 500.001 500.008 8 872.18018029375 872.18018029375 6977.44144235 6085586.135178
101	29304 151 52 478 500.001 500.008 8 81 81 648 52488
102	29455 255 53 479 500.001 500.008 8 1117.7609147336 1117.7609147336 8942.0873178685 9995115.7000481
103	29710 151 53 479 500.001 500.008 8 77 77 616 47432
104	29861 255 54 480 500.001 500.008 8 1280.1512156848 1280.1512156848 10241.209725479 13110297.080155
105	30116 151 54 480 500.001 500.008 8 77 77 616 47432
106	30267 255 55 481 500.001 500.008 8 909.11969999409 909.11969999409 7272.9575999527 6611989.0313387
107	30522 151 55 481 500.001 500.008 8 77 77 616 47432
108	30673 255 56 482 500.001 500.008 8 1034.0096075248 1034.0096075248 8272.0768601981 8553406.947628
109	30928 151 56 482 500.001 500.008 8 65 65 520 33800
110	31079 255 57 483 500.001 500.008 8 946.34561029703 946.34561029703 7570.7648823763 7164560.1130277
111	31334 151 57 483 500.001 500.008 8 85 85 680 57800
112	31485 255 58 484 500.001 500.008 8 1660.8286367275 1660.8286367275 13286.62909382 22066814.084593
113	31740 151 58 484 500.001 500.008 8 69 69 552 38088
114	31891 223 59 424 500.001 500.007 7 1960.1827637689 1960.1827637689 13721.279346382 26896215.271637
115	32114 132 59 424 500.001 500.007 7 85 85 595 50575
116	32246 223 60 425 500.001 500.007 7 1726.5581555649 1726.5581555649 12085.907088954 20867021.451833
117	32469 132 60 425 500.001 500.007 7 65 65 455 29575
118	32601 223 61 426 500.001 500.007 7 1430.2203596499 1430.2203596499 10011.542517549 14318711.9401
119	32824 132 61 426 500.001 500.007 7 65 65 455 29575
120	32956 223 62 427 500.001 500.007 7 687.88532407619 687.88532407619 4815.1972685333 3312303.5335558
121	33179 132 62 427 500.001 500.007 7 81 81 567 45927
122	33311 17 63 63 500.001 500.001 1 0 0 0 0
123	33328 17 63 63 500.001 500.001 1 0 0 0 0
124	33345 17 66 66 500.001 500.001 1 0 0 0 0
125	33362 17 67 67 500.001 500.001 1 0 0 0 0
126	33379 18 458 458 500.008 500.008 1 1 1 1 1
vector 127 Highway.car[26].lteNic.pdcpRrc receivedPacketFromUpperLayer:vector(packetBytes) ETV
attr interpolationmode none
attr source receivedPacketFromUpperLayer
vector 128 Highway.car[26].lteNic.pdcpRrc sentPacketToLowerLayer:vector(packetBytes) ETV
attr interpolationmode none
attr source sentPacketToLowerLayer
vector 129 Highway.car[26].lteNic.mac resourceReselectionCounter:vector ETV
attr source resourceReselectionCounter
attr title "ResourceReselectionCounter selectedNumber of transmissions, vector"
vector 130 Highway.car[26].lteNic.mac sentPacketToLowerLayer:vector(packetBytes) ETV
attr interpolationmode none
attr source sentPacketToLowerLayer
vector 131 Highway.car[26].lteNic.mac grantRequests:vector ETV
attr source grantRequests
attr title "Total number of requested grants, vector"
vector 132 Highway.car[26].lteNic.mac receivedPacketFromUpperLayer:vector(packetBytes) ETV
attr interpolationmode none
attr source receivedPacketFromUpperLayer
vector 133 Highway.car[26].lteNic.mac receivedPacketFromLowerLayer:vector(packetBytes) ETV
attr interpolationmode none
attr source receivedPacketFromLowerLayer
vector 134 Highway.car[26].lteNic.mac grantStartTime:vector ETV
attr source grantStartTime
attr title "Grant StartTime, vector"
vector 135 Highway.car[26].lteNic.mac selectedSubchannelIndex:vector ETV
attr source selectedSubchannelIndex
attr title "SelectedSubchannelIndex, vector"
vector 136 Highway.car[26].lteNic.mac selectedNumSubchannels:vector ETV
attr source selectedNumSubchannels
attr title "SelectedNumSubchannels, vector"
vector 137 Highway.car[26].lteNic.mac takingReservedGrant:vector ETV
attr source takingReservedGrant
attr title "takingReservedGrant, vector"
vector 138 Highway.car[26].lteNic.mac sentPacketToUpperLayer:vector(packetBytes) ETV
attr interpolationmode none
attr source sentPacketToUpperLayer
vector 139 Highway.car[26].lteNic.mac selectedMCS:vector ETV
attr source selectedMCS
attr title "MCS selected for transmission, vector"
vector 140 Highway.car[26].lteNic.phy sciSent:vector ETV
attr source sciSent
attr title "Number of sci sent, vector"
vector 141 Highway.car[26].lteNic.phy subchannelSent:vector ETV
attr source subchannelSent
attr title "starting Subchannel used for sent message, vector"
vector 142 Highway.car[26].lteNic.phy subchannelsUsedToSend:vector ETV
attr source subchannelsUsedToSend
attr title "Number of subchannels used for message, vector"
vector 143 Highway.car[26].lteNic.phy tbSent:vector ETV
attr source tbSent
attr title "Number of tb sent, vector"
vector 144 Highway.car[0].lteNic.phy txRxDistanceSCI:vector ETV
attr source txRxDistanceSCI
attr title "Distance between transmitter and receiver, vector"
vector 145 Highway.car[0].lteNic.phy senderID:vector ETV
attr source senderID
attr title "ID of node who sent message, vector"
vector 146 Highway.car[0].lteNic.phy sciReceived:vector ETV
attr source sciReceived
attr title "Number of received sci, vector"
vector 147 Highway.car[0].lteNic.phy sciUnsensed:vector ETV
attr source sciUnsensed
attr title "Number of failed SCIs due to RSRP below threshold, vector"
vector 148 Highway.car[0].lteNic.phy sciDecoded:vector ETV
attr source sciDecoded
attr title "Number of sci successfully decoded, vector"
vector 149 Highway.car[0].lteNic.phy sciFailedDueToProp:vector ETV
attr source sciFailedDueToProp
attr title "Number of failed SCIs due to propogation, vector"
vector 150 Highway.car[0].lteNic.phy sciFailedDueToInterference:vector ETV
attr source sciFailedDueToInterference
attr title "Number of failed SCIs due to interference, vector"
vector 151 Highway.car[0].lteNic.phy sciFailedHalfDuplex:vector ETV
attr source sciFailedHalfDuplex
attr title "Number of failed SCIs due to Half Duplex, vector"
vector 152 Highway.car[0].lteNic.phy subchannelReceived:vector ETV
attr source subchannelReceived
attr title "Initial Subchannel on which packet is received, vector"
vector 153 Highway.car[0].lteNic.phy subchannelsUsed:vector ETV
attr source subchannelsUsed
attr title "Number of Subchannels used for the received packet, vector"
vector 154 Highway.car[0].lteNic.phy txRxDistanceTB:vector ETV
attr source txRxDistanceTB
attr title "Distance between transmitter and receiver, vector"
vector 155 Highway.car[0].lteNic.phy tbReceived:vector ETV
attr source tbReceived
attr title "Number of tb received, vector"
vector 156 Highway.car[0].lteNic.phy tbDecoded:vector ETV
attr source tbDecoded
attr title "Number of tb Decoded, vector"
vector 157 Highway.car[0].lteNic.phy tbFailedDueToNoSCI:vector ETV
attr source tbFailedDueToNoSCI
attr title "Number of tb not decoded due to no SCI, vector"
vector 158 Highway.car[0].lteNic.phy tbFailedDueToProp:vector ETV
attr source tbFailedDueToProp
attr title "Number of failed TBs due to propogation, vector"
vector 159 Highway.car[0].lteNic.phy tbFailedDueToInterference:vector ETV
attr source tbFailedDueToInterference
attr title "Number of failed TBs due to interference, vector"
vector 160 Highway.car[0].lteNic.phy tbFailedButSCIReceived:vector ETV
attr source tbFailedButSCIReceived
attr title "Number of failed TBs with a decoded SCI, vector"
vector 161 Highway.car[0].lteNic.phy tbFailedHalfDuplex:vector ETV
attr source tbFailedHalfDuplex
attr title "Number of failed TBs due to Half Duplex, vector"
vector 162 Highway.car[0].lteNic.phy periodic:vector ETV
attr source periodic
attr title "Identifies traffic as periodic or aperiodic, vector"
vector 163 Highway.car[0].lteNic.phy tbFailedDueToPropIgnoreSCI:vector ETV
attr source tbFailedDueToPropIgnoreSCI
attr title "Number of failed TBs due to propogation, vector"
vector 164 Highway.car[0].lteNic.phy tbFailedDueToInterferenceIgnoreSCI:vector ETV
attr source tbFailedDueToInterferenceIgnoreSCI
attr title "Number of failed TBs due to interference, vector"
vector 165 Highway.car[0].lteNic.phy tbDecodedIgnoreSCI:vector ETV
attr source tbDecodedIgnoreSCI
attr title "Number of failed TBs due to interference, vector"
vector 166 Highway.car[0].lteNic.mac receivedPacketFromLowerLayer:vector(packetBytes) ETV
attr interpolationmode none
attr source receivedPacketFromLowerLayer
vector 167 Highway.car[1].lteNic.phy txRxDistanceSCI:vector ETV
attr source txRxDistanceSCI
attr title "Distance between transmitter and receiver, vector"
vector 168 Highway.car[1].lteNic.phy senderID:vector ETV
attr source senderID
attr title "ID of node who sent message, vector"
vector 169 Highway.car[1].lteNic.phy sciReceived:vector ETV
attr source sciReceived
attr title "Number of received sci, vector"
vector 170 Highway.car[1].lteNic.phy sciUnsensed:vector ETV
attr source sciUnsensed
attr title "Number of failed SCIs due to RSRP below threshold, vector"
vector 171 Highway.car[1].lteNic.phy sciDecoded:vector ETV
attr source sciDecoded
attr title "Number of sci successfully decoded, vector"
vector 172 Highway.car[1].lteNic.phy sciFailedDueToProp:vector ETV
attr source sciFailedDueToProp
attr title "Number of failed SCIs due to propogation, vector"
vector 173 Highway.car[1].lteNic.phy sciFailedDueToInterference:vector ETV
attr source sciFailedDueToInterference
attr title "Number of failed SCIs due to interference, vector"
vector 174 Highway.car[1].lteNic.phy sciFailedHalfDuplex:vector ETV
attr source sciFailedHalfDuplex
attr title "Number of failed SCIs due to Half Duplex, vector"
vector 175 Highway.car[1].lteNic.phy subchannelReceived:vector ETV
attr source subchannelReceived
attr title "Initial Subchannel on which packet is received, vector"
vector 176 Highway.car[1].lteNic.phy subchannelsUsed:vector ETV
attr source subchannelsUsed
attr title "Number of Subchannels used for the received packet, vector"
vector 177 Highway.car[1].lteNic.phy txRxDistanceTB:vector ETV
attr source txRxDistanceTB
attr title "Distance between transmitter and receiver, vector"
vector 178 Highway.car[1].lteNic.phy tbReceived:vector ETV
attr source tbReceived
attr title "Number of tb received, vector"
vector 179 Highway.car[1].lteNic.phy tbDecoded:vector ETV
attr source tbDecoded
attr title "Number of tb Decoded, vector"
vector 180 Highway.car[1].lteNic.phy tbFailedDueToNoSCI:vector ETV
attr source tbFailedDueToNoSCI
attr title "Number of tb not decoded due to no SCI, vector"
vector 181 Highway.car[1].lteNic.phy tbFailedDueToProp:vector ETV
attr source tbFailedDueToProp
attr title "Number of failed TBs due to propogation, vector"
vector 182 Highway.car[1].lteNic.phy tbFailedDueToInterference:vector ETV
attr source tbFailedDueToInterference
attr title "Number of failed TBs due to interference, vector"
vector 183 Highway.car[1].lteNic.phy tbFailedButSCIReceived:vector ETV
attr source tbFailedButSCIReceived
attr title "Number of failed TBs with a decoded SCI, vector"
vector 184 Highway.car[1].lteNic.phy tbFailedHalfDuplex:vector ETV
attr source tbFailedHalfDuplex
attr title "Number of failed TBs due to Half Duplex, vector"
vector 185 Highway.car[1].lteNic.phy periodic:vector ETV
attr source periodic
attr title "Identifies traffic as periodic or aperiodic, vector"
vector 186 Highway.car[1].lteNic.phy tbFailedDueToPropIgnoreSCI:vector ETV
attr source tbFailedDueToPropIgnoreSCI
attr title "Number of failed TBs due to propogation, vector"
vector 187 Highway.car[1].lteNic.phy tbFailedDueToInterferenceIgnoreSCI:vector ETV
attr source tbFailedDueToInterferenceIgnoreSCI
attr title "Number of failed TBs due to interference, vector"
vector 188 Highway.car[1].lteNic.phy tbDecodedIgnoreSCI:vector ETV
attr source tbDecodedIgnoreSCI
attr title "Number of failed TBs due to interference, vector"
vector 189 Highway.car[1].lteNic.mac receivedPacketFromLowerLayer:vector(packetBytes) ETV
attr interpolationmode none
attr source receivedPacketFromLowerLayer
vector 190 Highway.car[2].lteNic.phy txRxDistanceSCI:vector ETV
attr source txRxDistanceSCI
attr title "Distance between transmitter and receiver, vector"
vector 191 Highway.car[2].lteNic.phy senderID:vector ETV
attr source senderID
attr title "ID of node who sent message, vector"
vector 192 Highway.car[2].lteNic.phy sciReceived:vector ETV
attr source sciReceived
attr title "Number of received sci, vector"
vector 193 Highway.car[2].lteNic.phy sciUnsensed:vector ETV
attr source sciUnsensed
attr title "Number of failed SCIs due to RSRP below threshold, vector"
vector 194 Highway.car[2].lteNic.phy sciDecoded:vector ETV
attr source sciDecoded
attr title "Number of sci successfully decoded, vector"
vector 195 Highway.car[2].lteNic.phy sciFailedDueToProp:vector ETV
attr source sciFailedDueToProp
attr title "Number of failed SCIs due to propogation, vector"
vector 196 Highway.car[2].lteNic.phy sciFailedDueToInterference:vector ETV
attr source sciFailedDueToInterference
attr title "Number of failed SCIs due to interference, vector"
vector 197 Highway.car[2].lteNic.phy sciFailedHalfDuplex:vector ETV
attr source sciFailedHalfDuplex
attr title "Number of failed SCIs due to Half Duplex, vector"
vector 198 Highway.car[2].lteNic.phy subchannelReceived:vector ETV
attr source subchannelReceived
attr title "Initial Subchannel on which packet is received, vector"
vector 199 Highway.car[2].lteNic.phy subchannelsUsed:vector ETV
attr source subchannelsUsed
attr title "Number of Subchannels used for the received packet, vector"
vector 200 Highway.car[2].lteNic.phy txRxDistanceTB:vector ETV
attr source txRxDistanceTB
attr title "Distance between transmitter and receiver, vector"
vector 201 Highway.car[2].lteNic.phy tbReceived:vector ETV
attr source tbReceived
attr title "Number of tb received, vector"
vector 202 Highway.car[2].lteNic.phy tbDecoded:vector ETV
attr source tbDecoded
attr title "Number of tb Decoded, vector"
vector 203 Highway.car[2].lteNic.phy tbFailedDueToNoSCI:vector ETV
attr source tbFailedDueToNoSCI
attr title "Number of tb not decoded due to no SCI, vector"
vector 204 Highway.car[2].lteNic.phy tbFailedDueToProp:vector ETV
attr source tbFailedDueToProp
attr title "Number of failed TBs due to propogation, vector"
vector 205 Highway.car[2].lteNic.phy tbFailedDueToInterference:vector ETV
attr source tbFailedDueToInterference
attr title "Number of failed TBs due to interference, vector"
vector 206 Highway.car[2].lteNic.phy tbFailedButSCIReceived:vector ETV
attr source tbFailedButSCIReceived
attr title "Number of failed TBs with a decoded SCI, vector"
vector 207 Highway.car[2].lteNic.phy tbFailedHalfDuplex:vector ETV
attr source tbFailedHalfDuplex
attr title "Number of failed TBs due to Half Duplex, vector"
vector 208 Highway.car[2].lteNic.phy periodic:vector ETV
attr source periodic
attr title "Identifies traffic as periodic or aperiodic, vector"
vector 209 Highway.car[2].lteNic.phy tbFailedDueToPropIgnoreSCI:vector ETV
attr source tbFailedDueToPropIgnoreSCI
attr title "Number of failed TBs due to propogation, vector"
vector 210 Highway.car[2].lteNic.phy tbFailedDueToInterferenceIgnoreSCI:vector ETV
attr source tbFailedDueToInterferenceIgnoreSCI
attr title "Number of failed TBs due to interference, vector"
vector 211 Highway.car[2].lteNic.phy tbDecodedIgnoreSCI:vector ETV
attr source tbDecodedIgnoreSCI
attr title "Number of failed TBs due to interference, vector"
vector 212 Highway.car[2].lteNic.mac receivedPacketFromLowerLayer:vector(packetBytes) ETV
attr interpolationmode none
attr source receivedPacketFromLowerLayer
vector 213 Highway.car[3].lteNic.phy txRxDistanceSCI:vector ETV
attr source txRxDistanceSCI
attr title "Distance between transmitter and receiver, vector"
vector 214 Highway.car[3].lteNic.phy senderID:vector ETV
attr source senderID
attr title "ID of node who sent message, vector"
vector 215 Highway.car[3].lteNic.phy sciReceived:vector ETV
attr source sciReceived
attr title "Number of received sci, vector"
vector 216 Highway.car[3].lteNic.phy sciUnsensed:vector ETV
attr source sciUnsensed
attr title "Number of failed SCIs due to RSRP below threshold, vector"
vector 217 Highway.car[3].lteNic.phy sciDecoded:vector ETV
attr source sciDecoded
attr title "Number of sci successfully decoded, vector"
vector 218 Highway.car[3].lteNic.phy sciFailedDueToProp:vector ETV
attr source sciFailedDueToProp
attr title "Number of failed SCIs due to propogation, vector"
vector 219 Highway.car[3].lteNic.phy sciFailedDueToInterference:vector ETV
attr source sciFailedDueToInterference
attr title "Number of failed SCIs due to interference, vector"
vector 220 Highway.car[3].lteNic.phy sciFailedHalfDuplex:vector ETV
attr source sciFailedHalfDuplex
attr title "Number of failed SCIs due to Half Duplex, vector"
vector 221 Highway.car[3].lteNic.phy subchannelReceived:vector ETV
attr source subchannelReceived
attr title "Initial Subchannel on which packet is received, vector"
vector 222 Highway.car[3].lteNic.phy subchannelsUsed:vector ETV
attr source subchannelsUsed
attr title "Number of Subchannels used for the received packet, vector"
vector 223 Highway.car[3].lteNic.phy txRxDistanceTB:vector ETV
attr source txRxDistanceTB
attr title "Distance between transmitter and receiver, vector"
vector 224 Highway.car[3].lteNic.phy tbReceived:vector ETV
attr source tbReceived
attr title "Number of tb received, vector"
vector 225 Highway.car[3].lteNic.phy tbDecoded:vector ETV
attr source tbDecoded
attr title "Number of tb Decoded, vector"
vector 226 Highway.car[3].lteNic.phy tbFailedDueToNoSCI:vector ETV
attr source tbFailedDueToNoSCI
attr title "Number of tb not decoded due to no SCI, vector"
vector 227 Highway.car[3].lteNic.phy tbFailedDueToProp:vector ETV
attr source tbFailedDueToProp
attr title "Number of failed TBs due to propogation, vector"
vector 228 Highway.car[3].lteNic.phy tbFailedDueToInterference:vector ETV
attr source tbFailedDueToInterference
attr title "Number of failed TBs due to interference, vector"
vector 229 Highway.car[3].lteNic.phy tbFailedButSCIReceived:vector ETV
attr source tbFailedButSCIReceived
attr title "Number of failed TBs with a decoded SCI, vector"
vector 230 Highway.car[3].lteNic.phy tbFailedHalfDuplex:vector ETV
attr source tbFailedHalfDuplex
attr title "Number of failed TBs due to Half Duplex, vector"
vector 231 Highway.car[3].lteNic.phy periodic:vector ETV
attr source periodic
attr title "Identifies traffic as periodic or aperiodic, vector"
vector 232 Highway.car[3].lteNic.phy tbFailedDueToPropIgnoreSCI:vector ETV
attr source tbFailedDueToPropIgnoreSCI
attr title "Number of failed TBs due to propogation, vector"
vector 233 Highway.car[3].lteNic.phy tbFailedDueToInterferenceIgnoreSCI:vector ETV
attr source tbFailedDueToInterferenceIgnoreSCI
attr title "Number of failed TBs due to interference, vector"
vector 234 Highway.car[3].lteNic.phy tbDecodedIgnoreSCI:vector ETV
attr source tbDecodedIgnoreSCI
attr title "Number of failed TBs due to interference, vector"
vector 235 Highway.car[3].lteNic.mac receivedPacketFromLowerLayer:vector(packetBytes) ETV
attr interpolationmode none
attr source receivedPacketFromLowerLayer
vector 236 Highway.car[4].lteNic.phy txRxDistanceSCI:vector ETV
attr source txRxDistanceSCI
attr title "Distance between transmitter and receiver, vector"
vector 237 Highway.car[4].lteNic.phy senderID:vector ETV
attr source senderID
attr title "ID of node who sent message, vector"
vector 238 Highway.car[4].lteNic.phy sciReceived:vector ETV
attr source sciReceived
attr title "Number of received sci, vector"
vector 239 Highway.car[4].lteNic.phy sciUnsensed:vector ETV
attr source sciUnsensed
attr title "Number of failed SCIs due to RSRP below threshold, vector"
vector 240 Highway.car[4].lteNic.phy sciDecoded:vector ETV
attr source sciDecoded
attr title "Number of sci successfully decoded, vector"
vector 241 Highway.car[4].lteNic.phy sciFailedDueToProp:vector ETV
attr source sciFailedDueToProp
attr title "Number of failed SCIs due to propogation, vector"
vector 242 Highway.car[4].lteNic.phy sciFailedDueToInterference:vector ETV
attr source sciFailedDueToInterference
attr title "Number of failed SCIs due to interference, vector"
vector 243 Highway.car[4].lteNic.phy sciFailedHalfDuplex:vector ETV
attr source sciFailedHalfDuplex
attr title "Number of failed SCIs due to Half Duplex, vector"
vector 244 Highway.car[4].lteNic.phy subchannelReceived:vector ETV
attr source subchannelReceived
attr title "Initial Subchannel on which packet is received, vector"
vector 245 Highway.car[4].lteNic.phy subchannelsUsed:vector ETV
attr source subchannelsUsed
attr title "Number of Subchannels used for the received packet, vector"
vector 246 Highway.car[4].lteNic.phy txRxDistanceTB:vector ETV
attr source txRxDistanceTB
attr title "Distance between transmitter and receiver, vector"
vector 247 Highway.car[4].lteNic.phy tbReceived:vector ETV
attr source tbReceived
attr title "Number of tb received, vector"
vector 248 Highway.car[4].lteNic.phy tbDecoded:vector ETV
attr source tbDecoded
attr title "Number of tb Decoded, vector"
vector 249 Highway.car[4].lteNic.phy tbFailedDueToNoSCI:vector ETV
attr source tbFailedDueToNoSCI
attr title "Number of tb not decoded due to no SCI, vector"
vector 250 Highway.car[4].lteNic.phy tbFailedDueToProp:vector ETV
attr source tbFailedDueToProp
attr title "Number of failed TBs due to propogation, vector"
vector 251 Highway.car[4].lteNic.phy tbFailedDueToInterference:vector ETV
attr source tbFailedDueToInterference
attr title "Number of failed TBs due to interference, vector"
vector 252 Highway.car[4].lteNic.phy tbFailedButSCIReceived:vector ETV
attr source tbFailedButSCIReceived
attr title "Number of failed TBs with a decoded SCI, vector"
vector 253 Highway.car[4].lteNic.phy tbFailedHalfDuplex:vector ETV
attr source tbFailedHalfDuplex
attr title "Number of failed TBs due to Half Duplex, vector"
vector 254 Highway.car[4].lteNic.phy periodic:vector ETV
attr source periodic
attr title "Identifies traffic as periodic or aperiodic, vector"
vector 255 Highway.car[4].lteNic.phy tbFailedDueToPropIgnoreSCI:vector ETV
attr source tbFailedDueToPropIgnoreSCI
attr title "Number of failed TBs due to propogation, vector"
vector 256 Highway.car[4].lteNic.phy tbFailedDueToInterferenceIgnoreSCI:vector ETV
attr source tbFailedDueToInterferenceIgnoreSCI
attr title "Number of failed TBs due to interference, vector"
vector 257 Highway.car[4].lteNic.phy tbDecodedIgnoreSCI:vector ETV
attr source tbDecodedIgnoreSCI
attr title "Number of failed TBs due to interference, vector"
vector 258 Highway.car[4].lteNic.mac receivedPacketFromLowerLayer:vector(packetBytes) ETV
attr interpolationmode none
attr source receivedPacketFromLowerLayer
vector 259 Highway.car[5].lteNic.phy txRxDistanceSCI:vector ETV
attr source txRxDistanceSCI
attr title "Distance between transmitter and receiver, vector"
vector 260 Highway.car[5].lteNic.phy senderID:vector ETV
attr source senderID
attr title "ID of node who sent message, vector"
vector 261 Highway.car[5].lteNic.phy sciReceived:vector ETV
attr source sciReceived
attr title "Number of received sci, vector"
vector 262 Highway.car[5].lteNic.phy sciUnsensed:vector ETV
attr source sciUnsensed
attr title "Number of failed SCIs due to RSRP below threshold, vector"
vector 263 Highway.car[5].lteNic.phy sciDecoded:vector ETV
attr source sciDecoded
attr title "Number of sci successfully decoded, vector"
vector 264 Highway.car[5].lteNic.phy sciFailedDueToProp:vector ETV
attr source sciFailedDueToProp
attr title "Number of failed SCIs due to propogation, vector"
vector 265 Highway.car[5].lteNic.phy sciFailedDueToInterference:vector ETV
attr source sciFailedDueToInterference
attr title "Number of failed SCIs due to interference, vector"
vector 266 Highway.car[5].lteNic.phy sciFailedHalfDuplex:vector ETV
attr source sciFailedHalfDuplex
attr title "Number of failed SCIs due to Half Duplex, vector"
vector 267 Highway.car[5].lteNic.phy subchannelReceived:vector ETV
attr source subchannelReceived
attr title "Initial Subchannel on which packet is received, vector"
vector 268 Highway.car[5].lteNic.phy subchannelsUsed:vector ETV
attr source subchannelsUsed
attr title "Number of Subchannels used for the received packet, vector"
vector 269 Highway.car[5].lteNic.phy txRxDistanceTB:vector ETV
attr source txRxDistanceTB
attr title "Distance between transmitter and receiver, vector"
vector 270 Highway.car[5].lteNic.phy tbReceived:vector ETV
attr source tbReceived
attr title "Number of tb received, vector"
vector 271 Highway.car[5].lteNic.phy tbDecoded:vector ETV
attr source tbDecoded
attr title "Number of tb Decoded, vector"
vector 272 Highway.car[5].lteNic.phy tbFailedDueToNoSCI:vector ETV
attr source tbFailedDueToNoSCI
attr title "Number of tb not decoded due to no SCI, vector"
vector 273 Highway.car[5].lteNic.phy tbFailedDueToProp:vector ETV
attr source tbFailedDueToProp
attr title "Number of failed TBs due to propogation, vector"
vector 274 Highway.car[5].lteNic.phy tbFailedDueToInterference:vector ETV
attr source tbFailedDueToInterference
attr title "Number of failed TBs due to interference, vector"
vector 275 Highway.car[5].lteNic.phy tbFailedButSCIReceived:vector ETV
attr source tbFailedButSCIReceived
attr title "Number of failed TBs with a decoded SCI, vector"
vector 276 Highway.car[5].lteNic.phy tbFailedHalfDuplex:vector ETV
attr source tbFailedHalfDuplex
attr title "Number of failed TBs due to Half Duplex, vector"
vector 277 Highway.car[5].lteNic.phy periodic:vector ETV
attr source periodic
attr title "Identifies traffic as periodic or aperiodic, vector"
vector 278 Highway.car[5].lteNic.phy tbFailedDueToPropIgnoreSCI:vector ETV
attr source tbFailedDueToPropIgnoreSCI
attr title "Number of failed TBs due to propogation, vector"
vector 279 Highway.car[5].lteNic.phy tbFailedDueToInterferenceIgnoreSCI:vector ETV
attr source tbFailedDueToInterferenceIgnoreSCI
attr title "Number of failed TBs due to interference, vector"
vector 280 Highway.car[5].lteNic.phy tbDecodedIgnoreSCI:vector ETV
attr source tbDecodedIgnoreSCI
attr title "Number of failed TBs due to interference, vector"
vector 281 Highway.car[5].lteNic.mac receivedPacketFromLowerLayer:vector(packetBytes) ETV
attr interpolationmode none
attr source receivedPacketFromLowerLayer
vector 282 Highway.car[6].lteNic.phy txRxDistanceSCI:vector ETV
attr source txRxDistanceSCI
attr title "Distance between transmitter and receiver, vector"
vector 283 Highway.car[6].lteNic.phy senderID:vector ETV
attr source senderID
attr title "ID of node who sent message, vector"
vector 284 Highway.car[6].lteNic.phy sciReceived:vector ETV
attr source sciReceived
attr title "Number of received sci, vector"
vector 285 Highway.car[6].lteNic.phy sciUnsensed:vector ETV
attr source sciUnsensed
attr title "Number of failed SCIs due to RSRP below threshold, vector"
vector 286 Highway.car[6].lteNic.phy sciDecoded:vector ETV
attr source sciDecoded
attr title "Number of sci successfully decoded, vector"
vector 287 Highway.car[6].lteNic.phy sciFailedDueToProp:vector ETV
attr source sciFailedDueToProp
attr title "Number of failed SCIs due to propogation, vector"
vector 288 Highway.car[6].lteNic.phy sciFailedDueToInterference:vector ETV
attr source sciFailedDueToInterference
attr title "Number of failed SCIs due to interference, vector"
vector 289 Highway.car[6].lteNic.phy sciFailedHalfDuplex:vector ETV
attr source sciFailedHalfDuplex
attr title "Number of failed SCIs due to Half Duplex, vector"
vector 290 Highway.car[6].lteNic.phy subchannelReceived:vector ETV
attr source subchannelReceived
attr title "Initial Subchannel on which packet is received, vector"
vector 291 Highway.car[6].lteNic.phy subchannelsUsed:vector ETV
attr source subchannelsUsed
attr title "Number of Subchannels used for the received packet, vector"
vector 292 Highway.car[6].lteNic.phy txRxDistanceTB:vector ETV
attr source txRxDistanceTB
attr title "Distance between transmitter and receiver, vector"
vector 293 Highway.car[6].lteNic.phy tbReceived:vector ETV
attr source tbReceived
attr title "Number of tb received, vector"
vector 294 Highway.car[6].lteNic.phy tbDecoded:vector ETV
attr source tbDecoded
attr title "Number of tb Decoded, vector"
vector 295 Highway.car[6].lteNic.phy tbFailedDueToNoSCI:vector ETV
attr source tbFailedDueToNoSCI
attr title "Number of tb not decoded due to no SCI, vector"
vector 296 Highway.car[6].lteNic.phy tbFailedDueToProp:vector ETV
attr source tbFailedDueToProp
attr title "Number of failed TBs due to propogation, vector"
vector 297 Highway.car[6].lteNic.phy tbFailedDueToInterference:vector ETV
attr source tbFailedDueToInterference
attr title "Number of failed TBs due to interference, vector"
vector 298 Highway.car[6].lteNic.phy tbFailedButSCIReceived:vector ETV
attr source tbFailedButSCIReceived
attr title "Number of failed TBs with a decoded SCI, vector"
vector 299 Highway.car[6].lteNic.phy tbFailedHalfDuplex:vector ETV
attr source tbFailedHalfDuplex
attr title "Number of failed TBs due to Half Duplex, vector"
vector 300 Highway.car[6].lteNic.phy periodic:vector ETV
attr source periodic
attr title "Identifies traffic as periodic or aperiodic, vector"
vector 301 Highway.car[6].lteNic.phy tbFailedDueToPropIgnoreSCI:vector ETV
attr source tbFailedDueToPropIgnoreSCI
attr title "Number of failed TBs due to propogation, vector"
vector 302 Highway.car[6].lteNic.phy tbFailedDueToInterferenceIgnoreSCI:vector ETV
attr source tbFailedDueToInterferenceIgnoreSCI
attr title "Number of failed TBs due to interference, vector"
vector 303 Highway.car[6].lteNic.phy tbDecodedIgnoreSCI:vector ETV
attr source tbDecodedIgnoreSCI
attr title "Number of failed TBs due to interference, vector"
vector 304 Highway.car[6].lteNic.mac receivedPacketFromLowerLayer:vector(packetBytes) ETV
attr interpolationmode none
attr source receivedPacketFromLowerLayer
vector 305 Highway.car[7].lteNic.phy txRxDistanceSCI:vector ETV
attr source txRxDistanceSCI
attr title "Distance between transmitter and receiver, vector"
vector 306 Highway.car[7].lteNic.phy senderID:vector ETV
attr source senderID
attr title "ID of node who sent message, vector"
vector 307 Highway.car[7].lteNic.phy sciReceived:vector ETV
attr source sciReceived
attr title "Number of received sci, vector"
vector 308 Highway.car[7].lteNic.phy sciUnsensed:vector ETV
attr source sciUnsensed
attr title "Number of failed SCIs due to RSRP below threshold, vector"
vector 309 Highway.car[7].lteNic.phy sciDecoded:vector ETV
attr source sciDecoded
attr title "Number of sci successfully decoded, vector"
vector 310 Highway.car[7].lteNic.phy sciFailedDueToProp:vector ETV
attr source sciFailedDueToProp
attr title "Number of failed SCIs due to propogation, vector"
vector 311 Highway.car[7].lteNic.phy sciFailedDueToInterference:vector ETV
attr source sciFailedDueToInterference
attr title "Number of failed SCIs due to interference, vector"
vector 312 Highway.car[7].lteNic.phy sciFailedHalfDuplex:vector ETV
attr source sciFailedHalfDuplex
attr title "Number of failed SCIs due to Half Duplex, vector"
vector 313 Highway.car[7].lteNic.phy subchannelReceived:vector ETV
attr source subchannelReceived
attr title "Initial Subchannel on which packet is received, vector"
vector 314 Highway.car[7].lteNic.phy subchannelsUsed:vector ETV
attr source subchannelsUsed
attr title "Number of Subchannels used for the received packet, vector"
vector 315 Highway.car[7].lteNic.phy txRxDistanceTB:vector ETV
attr source txRxDistanceTB
attr title "Distance between transmitter and receiver, vector"
vector 316 Highway.car[7].lteNic.phy tbReceived:vector ETV
attr source tbReceived
attr title "Number of tb received, vector"
vector 317 Highway.car[7].lteNic.phy tbDecoded:vector ETV
attr source tbDecoded
attr title "Number of tb Decoded, vector"
vector 318 Highway.car[7].lteNic.phy tbFailedDueToNoSCI:vector ETV
attr source tbFailedDueToNoSCI
attr title "Number of tb not decoded due to no SCI, vector"
vector 319 Highway.car[7].lteNic.phy tbFailedDueToProp:vector ETV
attr source tbFailedDueToProp
attr title "Number of failed TBs due to propogation, vector"
vector 320 Highway.car[7].lteNic.phy tbFailedDueToInterference:vector ETV
attr source tbFailedDueToInterference
attr title "Number of failed TBs due to interference, vector"
vector 321 Highway.car[7].lteNic.phy tbFailedButSCIReceived:vector ETV
attr source tbFailedButSCIReceived
attr title "Number of failed TBs with a decoded SCI, vector"
vector 322 Highway.car[7].lteNic.phy tbFailedHalfDuplex:vector ETV
attr source tbFailedHalfDuplex
attr title "Number of failed TBs due to Half Duplex, vector"
vector 323 Highway.car[7].lteNic.phy periodic:vector ETV
attr source periodic
attr title "Identifies traffic as periodic or aperiodic, vector"
vector 324 Highway.car[7].lteNic.phy tbFailedDueToPropIgnoreSCI:vector ETV
attr source tbFailedDueToPropIgnoreSCI
attr title "Number of failed TBs due to propogation, vector"
vector 325 Highway.car[7].lteNic.phy tbFailedDueToInterferenceIgnoreSCI:vector ETV
attr source tbFailedDueToInterferenceIgnoreSCI
attr title "Number of failed TBs due to interference, vector"
vector 326 Highway.car[7].lteNic.phy tbDecodedIgnoreSCI:vector ETV
attr source tbDecodedIgnoreSCI
attr title "Number of failed TBs due to interference, vector"
vector 327 Highway.car[7].lteNic.mac receivedPacketFromLowerLayer:vector(packetBytes) ETV
attr interpolationmode none
attr source receivedPacketFromLowerLayer
vector 328 Highway.car[8].lteNic.phy txRxDistanceSCI:vector ETV
attr source txRxDistanceSCI
attr title "Distance between transmitter and receiver, vector"
vector 329 Highway.car[8].lteNic.phy senderID:vector ETV
attr source senderID
attr title "ID of node who sent message, vector"
vector 330 Highway.car[8].lteNic.phy sciReceived:vector ETV
attr source sciReceived
attr title "Number of received sci, vector"
vector 331 Highway.car[8].lteNic.phy sciUnsensed:vector ETV
attr source sciUnsensed
attr title "Number of failed SCIs due to RSRP below threshold, vector"
vector 332 Highway.car[8].lteNic.phy sciDecoded:vector ETV
attr source sciDecoded
attr title "Number of sci successfully decoded, vector"
vector 333 Highway.car[8].lteNic.phy sciFailedDueToProp:vector ETV
attr source sciFailedDueToProp
attr title "Number of failed SCIs due to propogation, vector"
vector 334 Highway.car[8].lteNic.phy sciFailedDueToInterference:vector ETV
attr source sciFailedDueToInterference
attr title "Number of failed SCIs due to interference, vector"
vector 335 Highway.car[8].lteNic.phy sciFailedHalfDuplex:vector ETV
attr source sciFailedHalfDuplex
attr title "Number of failed SCIs due to Half Duplex, vector"
vector 336 Highway.car[8].lteNic.phy subchannelReceived:vector ETV
attr source subchannelReceived
attr title "Initial Subchannel on which packet is received, vector"
vector 337 Highway.car[8].lteNic.phy subchannelsUsed:vector ETV
attr source subchannelsUsed
attr title "Number of Subchannels used for the received packet, vector"
vector 338 Highway.car[8].lteNic.phy txRxDistanceTB:vector ETV
attr source txRxDistanceTB
attr title "Distance between transmitter and receiver, vector"
vector 339 Highway.car[8].lteNic.phy tbReceived:vector ETV
attr source tbReceived
attr title "Number of tb received, vector"
vector 340 Highway.car[8].lteNic.phy tbDecoded:vector ETV
attr source tbDecoded
attr title "Number of tb Decoded, vector"
vector 341 Highway.car[8].lteNic.phy tbFailedDueToNoSCI:vector ETV
attr source tbFailedDueToNoSCI
attr title "Number of tb not decoded due to no SCI, vector"
vector 342 Highway.car[8].lteNic.phy tbFailedDueToProp:vector ETV
attr source tbFailedDueToProp
attr title "Number of failed TBs due to propogation, vector"
vector 343 Highway.car[8].lteNic.phy tbFailedDueToInterference:vector ETV
attr source tbFailedDueToInterference
attr title "Number of failed TBs due to interference, vector"
vector 344 Highway.car[8].lteNic.phy tbFailedButSCIReceived:vector ETV
attr source tbFailedButSCIReceived
attr title "Number of failed TBs with a decoded SCI, vector"
vector 345 Highway.car[8].lteNic.phy tbFailedHalfDuplex:vector ETV
attr source tbFailedHalfDuplex
attr title "Number of failed TBs due to Half Duplex, vector"
vector 346 Highway.car[8].lteNic.phy periodic:vector ETV
attr source periodic
attr title "Identifies traffic as periodic or aperiodic, vector"
vector 347 Highway.car[8].lteNic.phy tbFailedDueToPropIgnoreSCI:vector ETV
attr source tbFailedDueToPropIgnoreSCI
attr title "Number of failed TBs due to propogation, vector"
vector 348 Highway.car[8].lteNic.phy tbFailedDueToInterferenceIgnoreSCI:vector ETV
attr source tbFailedDueToInterferenceIgnoreSCI
attr title "Number of failed TBs due to interference, vector"
vector 349 Highway.car[8].lteNic.phy tbDecodedIgnoreSCI:vector ETV
attr source tbDecodedIgnoreSCI
attr title "Number of failed TBs due to interference, vector"
vector 350 Highway.car[8].lteNic.mac receivedPacketFromLowerLayer:vector(packetBytes) ETV
attr interpolationmode none
attr source receivedPacketFromLowerLayer
vector 351 Highway.car[9].lteNic.phy txRxDistanceSCI:vector ETV
attr source txRxDistanceSCI
attr title "Distance between transmitter and receiver, vector"
vector 352 Highway.car[9].lteNic.phy senderID:vector ETV
attr source senderID
attr title "ID of node who sent message, vector"
vector 353 Highway.car[9].lteNic.phy sciReceived:vector ETV
attr source sciReceived
attr title "Number of received sci, vector"
vector 354 Highway.car[9].lteNic.phy sciUnsensed:vector ETV
attr source sciUnsensed
attr title "Number of failed SCIs due to RSRP below threshold, vector"
vector 355 Highway.car[9].lteNic.phy sciDecoded:vector ETV
attr source sciDecoded
attr title "Number of sci successfully decoded, vector"
vector 356 Highway.car[9].lteNic.phy sciFailedDueToProp:vector ETV
attr source sciFailedDueToProp
attr title "Number of failed SCIs due to propogation, vector"
vector 357 Highway.car[9].lteNic.phy sciFailedDueToInterference:vector ETV
attr source sciFailedDueToInterference
attr title "Number of failed SCIs due to interference, vector"
vector 358 Highway.car[9].lteNic.phy sciFailedHalfDuplex:vector ETV
attr source sciFailedHalfDuplex
attr title "Number of failed SCIs due to Half Duplex, vector"
vector 359 Highway.car[9].lteNic.phy subchannelReceived:vector ETV
attr source subchannelReceived
attr title "Initial Subchannel on which packet is received, vector"
vector 360 Highway.car[9].lteNic.phy subchannelsUsed:vector ETV
attr source subchannelsUsed
attr title "Number of Subchannels used for the received packet, vector"
vector 361 Highway.car[9].lteNic.phy txRxDistanceTB:vector ETV
attr source txRxDistanceTB
attr title "Distance between transmitter and receiver, vector"
vector 362 Highway.car[9].lteNic.phy tbReceived:vector ETV
attr source tbReceived
attr title "Number of tb received, vector"
vector 363 Highway.car[9].lteNic.phy tbDecoded:vector ETV
attr source tbDecoded
attr title "Number of tb Decoded, vector"
vector 364 Highway.car[9].lteNic.phy tbFailedDueToNoSCI:vector ETV
attr source tbFailedDueToNoSCI
attr title "Number of tb not decoded due to no SCI, vector"
vector 365 Highway.car[9].lteNic.phy tbFailedDueToProp:vector ETV
attr source tbFailedDueToProp
attr title "Number of failed TBs due to propogation, vector"
vector 366 Highway.car[9].lteNic.phy tbFailedDueToInterference:vector ETV
attr source tbFailedDueToInterference
attr title "Number of failed TBs due to interference, vector"
vector 367 Highway.car[9].lteNic.phy tbFailedButSCIReceived:vector ETV
attr source tbFailedButSCIReceived
attr title "Number of failed TBs with a decoded SCI, vector"
vector 368 Highway.car[9].lteNic.phy tbFailedHalfDuplex:vector ETV
attr source tbFailedHalfDuplex
attr title "Number of failed TBs due to Half Duplex, vector"
vector 369 Highway.car[9].lteNic.phy periodic:vector ETV
attr source periodic
attr title "Identifies traffic as periodic or aperiodic, vector"
vector 370 Highway.car[9].lteNic.phy tbFailedDueToPropIgnoreSCI:vector ETV
attr source tbFailedDueToPropIgnoreSCI
attr title "Number of failed TBs due to propogation, vector"
vector 371 Highway.car[9].lteNic.phy tbFailedDueToInterferenceIgnoreSCI:vector ETV
attr source tbFailedDueToInterferenceIgnoreSCI
attr title "Number of failed TBs due to interference, vector"
vector 372 Highway.car[9].lteNic.phy tbDecodedIgnoreSCI:vector ETV
attr source tbDecodedIgnoreSCI
attr title "Number of failed TBs due to interference, vector"
vector 373 Highway.car[9].lteNic.mac receivedPacketFromLowerLayer:vector(packetBytes) ETV
attr interpolationmode none
attr source receivedPacketFromLowerLayer
vector 374 Highway.car[10].lteNic.phy txRxDistanceSCI:vector ETV
attr source txRxDistanceSCI
attr title "Distance between transmitter and receiver, vector"
vector 375 Highway.car[10].lteNic.phy senderID:vector ETV
attr source senderID
attr title "ID of node who sent message, vector"
vector 376 Highway.car[10].lteNic.phy sciReceived:vector ETV
attr source sciReceived
attr title "Number of received sci, vector"
vector 377 Highway.car[10].lteNic.phy sciUnsensed:vector ETV
attr source sciUnsensed
attr title "Number of failed SCIs due to RSRP below threshold, vector"
vector 378 Highway.car[10].lteNic.phy sciDecoded:vector ETV
attr source sciDecoded
attr title "Number of sci successfully decoded, vector"
vector 379 Highway.car[10].lteNic.phy sciFailedDueToProp:vector ETV
attr source sciFailedDueToProp
attr title "Number of failed SCIs due to propogation, vector"
vector 380 Highway.car[10].lteNic.phy sciFailedDueToInterference:vector ETV
attr source sciFailedDueToInterference
attr title "Number of failed SCIs due to interference, vector"
vector 381 Highway.car[10].lteNic.phy sciFailedHalfDuplex:vector ETV
attr source sciFailedHalfDuplex
attr title "Number of failed SCIs due to Half Duplex, vector"
vector 382 Highway.car[10].lteNic.phy subchannelReceived:vector ETV
attr source subchannelReceived
attr title "Initial Subchannel on which packet is received, vector"
vector 383 Highway.car[10].lteNic.phy subchannelsUsed:vector ETV
attr source subchannelsUsed
attr title "Number of Subchannels used for the received packet, vector"
vector 384 Highway.car[10].lteNic.phy txRxDistanceTB:vector ETV
attr source txRxDistanceTB
attr title "Distance between transmitter and receiver, vector"
vector 385 Highway.car[10].lteNic.phy tbReceived:vector ETV
attr source tbReceived
attr title "Number of tb received, vector"
vector 386 Highway.car[10].lteNic.phy tbDecoded:vector ETV
attr source tbDecoded
attr title "Number of tb Decoded, vector"
vector 387 Highway.car[10].lteNic.phy tbFailedDueToNoSCI:vector ETV
attr source tbFailedDueToNoSCI
attr title "Number of tb not decoded due to no SCI, vector"
vector 388 Highway.car[10].lteNic.phy tbFailedDueToProp:vector ETV
attr source tbFailedDueToProp
attr title "Number of failed TBs due to propogation, vector"
vector 389 Highway.car[10].lteNic.phy tbFailedDueToInterference:vector ETV
attr source tbFailedDueToInterference
attr title "Number of failed TBs due to interference, vector"
vector 390 Highway.car[10].lteNic.phy tbFailedButSCIReceived:vector ETV
attr source tbFailedButSCIReceived
attr title "Number of failed TBs with a decoded SCI, vector"
vector 391 Highway.car[10].lteNic.phy tbFailedHalfDuplex:vector ETV
attr source tbFailedHalfDuplex
attr title "Number of failed TBs due to Half Duplex, vector"
vector 392 Highway.car[10].lteNic.phy periodic:vector ETV
attr source periodic
attr title "Identifies traffic as periodic or aperiodic, vector"
vector 393 Highway.car[10].lteNic.phy tbFailedDueToPropIgnoreSCI:vector ETV
attr source tbFailedDueToPropIgnoreSCI
attr title "Number of failed TBs due to propogation, vector"
vector 394 Highway.car[10].lteNic.phy tbFailedDueToInterferenceIgnoreSCI:vector ETV
attr source tbFailedDueToInterferenceIgnoreSCI
attr title "Number of failed TBs due to interference, vector"
vector 395 Highway.car[10].lteNic.phy tbDecodedIgnoreSCI:vector ETV
attr source tbDecodedIgnoreSCI
attr title "Number of failed TBs due to interference, vector"
vector 396 Highway.car[10].lteNic.mac receivedPacketFromLowerLayer:vector(packetBytes) ETV
attr interpolationmode none
attr source receivedPacketFromLowerLayer
vector 397 Highway.car[11].lteNic.phy txRxDistanceSCI:vector ETV
attr source txRxDistanceSCI
attr title "Distance between transmitter and receiver, vector"
vector 398 Highway.car[11].lteNic.phy senderID:vector ETV
attr source senderID
attr title "ID of node who sent message, vector"
vector 399 Highway.car[11].lteNic.phy sciReceived:vector ETV
attr source sciReceived
attr title "Number of received sci, vector"
vector 400 Highway.car[11].lteNic.phy sciUnsensed:vector ETV
attr source sciUnsensed
attr title "Number of failed SCIs due to RSRP below threshold, vector"
vector 401 Highway.car[11].lteNic.phy sciDecoded:vector ETV
attr source sciDecoded
attr title "Number of sci successfully decoded, vector"
vector 402 Highway.car[11].lteNic.phy sciFailedDueToProp:vector ETV
attr source sciFailedDueToProp
attr title "Number of failed SCIs due to propogation, vector"
vector 403 Highway.car[11].lteNic.phy sciFailedDueToInterference:vector ETV
attr source sciFailedDueToInterference
attr title "Number of failed SCIs due to interference, vector"
vector 404 Highway.car[11].lteNic.phy sciFailedHalfDuplex:vector ETV
attr source sciFailedHalfDuplex
attr title "Number of failed SCIs due to Half Duplex, vector"
vector 405 Highway.car[11].lteNic.phy subchannelReceived:vector ETV
attr source subchannelReceived
attr title "Initial Subchannel on which packet is received, vector"
vector 406 Highway.car[11].lteNic.phy subchannelsUsed:vector ETV
attr source subchannelsUsed
attr title "Number of Subchannels used for the received packet, vector"
vector 407 Highway.car[11].lteNic.phy txRxDistanceTB:vector ETV
attr source txRxDistanceTB
attr title "Distance between transmitter and receiver, vector"
vector 408 Highway.car[11].lteNic.phy tbReceived:vector ETV
attr source tbReceived
attr title "Number of tb received, vector"
vector 409 Highway.car[11].lteNic.phy tbDecoded:vector ETV
attr source tbDecoded
attr title "Number of tb Decoded, vector"
vector 410 Highway.car[11].lteNic.phy tbFailedDueToNoSCI:vector ETV
attr source tbFailedDueToNoSCI
attr title "Number of tb not decoded due to no SCI, vector"
vector 411 Highway.car[11].lteNic.phy tbFailedDueToProp:vector ETV
attr source tbFailedDueToProp
attr title "Number of failed TBs due to propogation, vector"
vector 412 Highway.car[11].lteNic.phy tbFailedDueToInterference:vector ETV
attr source tbFailedDueToInterference
attr title "Number of failed TBs due to interference, vector"
vector 413 Highway.car[11].lteNic.phy tbFailedButSCIReceived:vector ETV
attr source tbFailedButSCIReceived
attr title "Number of failed TBs with a decoded SCI, vector"
vector 414 Highway.car[11].lteNic.phy tbFailedHalfDuplex:vector ETV
attr source tbFailedHalfDuplex
attr title "Number of failed TBs due to Half Duplex, vector"
vector 415 Highway.car[11].lteNic.phy periodic:vector ETV
attr source periodic
attr title "Identifies traffic as periodic or aperiodic, vector"
vector 416 Highway.car[11].lteNic.phy tbFailedDueToPropIgnoreSCI:vector ETV
attr source tbFailedDueToPropIgnoreSCI
attr title "Number of failed TBs due to propogation, vector"
vector 417 Highway.car[11].lteNic.phy tbFailedDueToInterferenceIgnoreSCI:vector ETV
attr source tbFailedDueToInterferenceIgnoreSCI
attr title "Number of failed TBs due to interference, vector"
vector 418 Highway.car[11].lteNic.phy tbDecodedIgnoreSCI:vector ETV
attr source tbDecodedIgnoreSCI
attr title "Number of failed TBs due to interference, vector"
vector 419 Highway.car[11].lteNic.mac receivedPacketFromLowerLayer:vector(packetBytes) ETV
attr interpolationmode none
attr source receivedPacketFromLowerLayer
vector 420 Highway.car[12].lteNic.phy txRxDistanceSCI:vector ETV
attr source txRxDistanceSCI
attr title "Distance between transmitter and receiver, vector"
vector 421 Highway.car[12].lteNic.phy senderID:vector ETV
attr source senderID
attr title "ID of node who sent message, vector"
vector 422 Highway.car[12].lteNic.phy sciReceived:vector ETV
attr source sciReceived
attr title "Number of received sci, vector"
vector 423 Highway.car[12].lteNic.phy sciUnsensed:vector ETV
attr source sciUnsensed
attr title "Number of failed SCIs due to RSRP below threshold, vector"
vector 424 Highway.car[12].lteNic.phy sciDecoded:vector ETV
attr source sciDecoded
attr title "Number of sci successfully decoded, vector"
vector 425 Highway.car[12].lteNic.phy sciFailedDueToProp:vector ETV
attr source sciFailedDueToProp
attr title "Number of failed SCIs due to propogation, vector"
vector 426 Highway.car[12].lteNic.phy sciFailedDueToInterference:vector ETV
attr source sciFailedDueToInterference
attr title "Number of failed SCIs due to interference, vector"
vector 427 Highway.car[12].lteNic.phy sciFailedHalfDuplex:vector ETV
attr source sciFailedHalfDuplex
attr title "Number of failed SCIs due to Half Duplex, vector"
vector 428 Highway.car[12].lteNic.phy subchannelReceived:vector ETV
attr source subchannelReceived
attr title "Initial Subchannel on which packet is received, vector"
vector 429 Highway.car[12].lteNic.phy subchannelsUsed:vector ETV
attr source subchannelsUsed
attr title "Number of Subchannels used for the received packet, vector"
vector 430 Highway.car[12].lteNic.phy txRxDistanceTB:vector ETV
attr source txRxDistanceTB
attr title "Distance between transmitter and receiver, vector"
vector 431 Highway.car[12].lteNic.phy tbReceived:vector ETV
attr source tbReceived
attr title "Number of tb received, vector"
vector 432 Highway.car[12].lteNic.phy tbDecoded:vector ETV
attr source tbDecoded
attr title "Number of tb Decoded, vector"
vector 433 Highway.car[12].lteNic.phy tbFailedDueToNoSCI:vector ETV
attr source tbFailedDueToNoSCI
attr title "Number of tb not decoded due to no SCI, vector"
vector 434 Highway.car[12].lteNic.phy tbFailedDueToProp:vector ETV
attr source tbFailedDueToProp
attr title "Number of failed TBs due to propogation, vector"
vector 435 Highway.car[12].lteNic.phy tbFailedDueToInterference:vector ETV
attr source tbFailedDueToInterference
attr title "Number of failed TBs due to interference, vector"
vector 436 Highway.car[12].lteNic.phy tbFailedButSCIReceived:vector ETV
attr source tbFailedButSCIReceived
attr title "Number of failed TBs with a decoded SCI, vector"
vector 437 Highway.car[12].lteNic.phy tbFailedHalfDuplex:vector ETV
attr source tbFailedHalfDuplex
attr title "Number of failed TBs due to Half Duplex, vector"
vector 438 Highway.car[12].lteNic.phy periodic:vector ETV
attr source periodic
attr title "Identifies traffic as periodic or aperiodic, vector"
vector 439 Highway.car[12].lteNic.phy tbFailedDueToPropIgnoreSCI:vector ETV
attr source tbFailedDueToPropIgnoreSCI
attr title "Number of failed TBs due to propogation, vector"
vector 440 Highway.car[12].lteNic.phy tbFailedDueToInterferenceIgnoreSCI:vector ETV
attr source tbFailedDueToInterferenceIgnoreSCI
attr title "Number of failed TBs due to interference, vector"
vector 441 Highway.car[12].lteNic.phy tbDecodedIgnoreSCI:vector ETV
attr source tbDecodedIgnoreSCI
attr title "Number of failed TBs due to interference, vector"
vector 442 Highway.car[12].lteNic.mac receivedPacketFromLowerLayer:vector(packetBytes) ETV
attr interpolationmode none
attr source receivedPacketFromLowerLayer
vector 443 Highway.car[13].lteNic.phy txRxDistanceSCI:vector ETV
attr source txRxDistanceSCI
attr title "Distance between transmitter and receiver, vector"
vector 444 Highway.car[13].lteNic.phy senderID:vector ETV
attr source senderID
attr title "ID of node who sent message, vector"
vector 445 Highway.car[13].lteNic.phy sciReceived:vector ETV
attr source sciReceived
attr title "Number of received sci, vector"
vector 446 Highway.car[13].lteNic.phy sciUnsensed:vector ETV
attr source sciUnsensed
attr title "Number of failed SCIs due to RSRP below threshold, vector"
vector 447 Highway.car[13].lteNic.phy sciDecoded:vector ETV
attr source sciDecoded
attr title "Number of sci successfully decoded, vector"
vector 448 Highway.car[13].lteNic.phy sciFailedDueToProp:vector ETV
attr source sciFailedDueToProp
attr title "Number of failed SCIs due to propogation, vector"
vector 449 Highway.car[13].lteNic.phy sciFailedDueToInterference:vector ETV
attr source sciFailedDueToInterference
attr title "Number of failed SCIs due to interference, vector"
vector 450 Highway.car[13].lteNic.phy sciFailedHalfDuplex:vector ETV
attr source sciFailedHalfDuplex
attr title "Number of failed SCIs due to Half Duplex, vector"
vector 451 Highway.car[13].lteNic.phy subchannelReceived:vector ETV
attr source subchannelReceived
attr title "Initial Subchannel on which packet is received, vector"
vector 452 Highway.car[13].lteNic.phy subchannelsUsed:vector ETV
attr source subchannelsUsed
attr title "Number of Subchannels used for the received packet, vector"
vector 453 Highway.car[13].lteNic.phy txRxDistanceTB:vector ETV
attr source txRxDistanceTB
attr title "Distance between transmitter and receiver, vector"
vector 454 Highway.car[13].lteNic.phy tbReceived:vector ETV
attr source tbReceived
attr title "Number of tb received, vector"
vector 455 Highway.car[13].lteNic.phy tbDecoded:vector ETV
attr source tbDecoded
attr title "Number of tb Decoded, vector"
vector 456 Highway.car[13].lteNic.phy tbFailedDueToNoSCI:vector ETV
attr source tbFailedDueToNoSCI
attr title "Number of tb not decoded due to no SCI, vector"
vector 457 Highway.car[13].lteNic.phy tbFailedDueToProp:vector ETV
attr source tbFailedDueToProp
attr title "Number of failed TBs due to propogation, vector"
vector 458 Highway.car[13].lteNic.phy tbFailedDueToInterference:vector ETV
attr source tbFailedDueToInterference
attr title "Number of failed TBs due to interference, vector"
[...]
633	207849 19 1172 1172 500.017 500.017 1 0 0 0 0
634	207868 19 1172 1172 500.017 500.017 1 0 0 0 0
635	207887 19 1172 1172 500.017 500.017 1 1 1 1 1
636	207906 33 1172 1172 500.017 500.017 1 680.07860309647 680.07860309647 680.07860309647 462506.90638965
637	207939 19 1172 1172 500.017 500.017 1 1 1 1 1
638	207958 19 1172 1172 500.017 500.017 1 0 0 0 0
639	207977 19 1172 1172 500.017 500.017 1 1 1 1 1
640	207996 19 1172 1172 500.017 500.017 1 0 0 0 0
641	208015 19 1172 1172 500.017 500.017 1 0 0 0 0
642	208034 19 1172 1172 500.017 500.017 1 0 0 0 0
643	208053 19 1172 1172 500.017 500.017 1 0 0 0 0
644	208072 19 1172 1172 500.017 500.017 1 1 1 1 1
645	208091 19 1172 1172 500.017 500.017 1 0 0 0 0
646	208110 19 1172 1172 500.017 500.017 1 0 0 0 0
647	208129 19 1172 1172 500.017 500.017 1 1 1 1 1
648	208148 19 1173 1173 500.017 500.017 1 5 5 5 25
649	208167 33 1174 1174 500.017 500.017 1 1051.0935087002 1051.0935087002 1051.0935087002 1104797.5640317
650	208200 22 1174 1174 500.017 500.017 1 1051 1051 1051 1104601
651	208222 19 1174 1174 500.017 500.017 1 1 1 1 1
652	208241 19 1174 1174 500.017 500.017 1 1 1 1 1
653	208260 19 1174 1174 500.017 500.017 1 0 0 0 0
654	208279 19 1174 1174 500.017 500.017 1 0 0 0 0
655	208298 19 1174 1174 500.017 500.017 1 0 0 0 0
656	208317 19 1174 1174 500.017 500.017 1 0 0 0 0
657	208336 19 1174 1174 500.017 500.017 1 0 0 0 0
658	208355 19 1174 1174 500.017 500.017 1 1 1 1 1
659	208374 33 1174 1174 500.017 500.017 1 1051.0935087002 1051.0935087002 1051.0935087002 1104797.5640317
660	208407 19 1174 1174 500.017 500.017 1 1 1 1 1
661	208426 19 1174 1174 500.017 500.017 1 0 0 0 0
662	208445 19 1174 1174 500.017 500.017 1 1 1 1 1
663	208464 19 1174 1174 500.017 500.017 1 0 0 0 0
664	208483 19 1174 1174 500.017 500.017 1 0 0 0 0
665	208502 19 1174 1174 500.017 500.017 1 0 0 0 0
666	208521 19 1174 1174 500.017 500.017 1 0 0 0 0
667	208540 19 1174 1174 500.017 500.017 1 1 1 1 1
668	208559 19 1174 1174 500.017 500.017 1 0 0 0 0
669	208578 19 1174 1174 500.017 500.017 1 0 0 0 0
670	208597 19 1174 1174 500.017 500.017 1 1 1 1 1
671	208616 19 1175 1175 500.017 500.017 1 5 5 5 25
672	208635 33 1176 1176 500.017 500.017 1 926.38907341746 926.38907341746 926.38907341746 858196.71534727
673	208668 22 1176 1176 500.017 500.017 1 1051 1051 1051 1104601
674	208690 19 1176 1176 500.017 500.017 1 1 1 1 1
675	208709 19 1176 1176 500.017 500.017 1 1 1 1 1
676	208728 19 1176 1176 500.017 500.017 1 0 0 0 0
677	208747 19 1176 1176 500.017 500.017 1 0 0 0 0
678	208766 19 1176 1176 500.017 500.017 1 0 0 0 0
679	208785 19 1176 1176 500.017 500.017 1 0 0 0 0
680	208804 19 1176 1176 500.017 500.017 1 0 0 0 0
681	208823 19 1176 1176 500.017 500.017 1 1 1 1 1
682	208842 33 1176 1176 500.017 500.017 1 926.38907341746 926.38907341746 926.38907341746 858196.71534727
683	208875 19 1176 1176 500.017 500.017 1 1 1 1 1
684	208894 19 1176 1176 500.017 500.017 1 0 0 0 0
685	208913 19 1176 1176 500.017 500.017 1 1 1 1 1
686	208932 19 1176 1176 500.017 500.017 1 0 0 0 0
687	208951 19 1176 1176 500.017 500.017 1 0 0 0 0
688	208970 19 1176 1176 500.017 500.017 1 0 0 0 0
689	208989 19 1176 1176 500.017 500.017 1 0 0 0 0
690	209008 19 1176 1176 500.017 500.017 1 1 1 1 1
691	209027 19 1176 1176 500.017 500.017 1 0 0 0 0
692	209046 19 1176 1176 500.017 500.017 1 0 0 0 0
693	209065 19 1176 1176 500.017 500.017 1 1 1 1 1
694	209084 19 1177 1177 500.017 500.017 1 5 5 5 25
695	209103 33 1178 1178 500.017 500.017 1 1013.8371534719 1013.8371534719 1013.8371534719 1027865.77376
696	209136 22 1178 1178 500.017 500.017 1 1051 1051 1051 1104601
697	209158 19 1178 1178 500.017 500.017 1 1 1 1 1
698	209177 19 1178 1178 500.017 500.017 1 1 1 1 1
699	209196 19 1178 1178 500.017 500.017 1 0 0 0 0
700	209215 19 1178 1178 500.017 500.017 1 0 0 0 0
701	209234 19 1178 1178 500.017 500.017 1 0 0 0 0
702	209253 19 1178 1178 500.017 500.017 1 0 0 0 0
703	209272 19 1178 1178 500.017 500.017 1 0 0 0 0
704	209291 19 1178 1178 500.017 500.017 1 1 1 1 1
705	209310 33 1178 1178 500.017 500.017 1 1013.8371534719 1013.8371534719 1013.8371534719 1027865.77376
706	209343 19 1178 1178 500.017 500.017 1 1 1 1 1
707	209362 19 1178 1178 500.017 500.017 1 0 0 0 0
708	209381 19 1178 1178 500.017 500.017 1 1 1 1 1
709	209400 19 1178 1178 500.017 500.017 1 0 0 0 0
710	209419 19 1178 1178 500.017 500.017 1 0 0 0 0
711	209438 19 1178 1178 500.017 500.017 1 0 0 0 0
712	209457 19 1178 1178 500.017 500.017 1 0 0 0 0
713	209476 19 1178 1178 500.017 500.017 1 1 1 1 1
714	209495 19 1178 1178 500.017 500.017 1 0 0 0 0
715	209514 19 1178 1178 500.017 500.017 1 0 0 0 0
716	209533 19 1178 1178 500.017 500.017 1 1 1 1 1
717	209552 19 1179 1179 500.017 500.017 1 5 5 5 25
718	209571 33 1180 1180 500.017 500.017 1 299.78140932472 299.78140932472 299.78140932472 89868.893376717
719	209604 22 1180 1180 500.017 500.017 1 1051 1051 1051 1104601
720	209626 19 1180 1180 500.017 500.017 1 1 1 1 1
721	209645 19 1180 1180 500.017 500.017 1 0 0 0 0
722	209664 19 1180 1180 500.017 500.017 1 1 1 1 1
723	209683 19 1180 1180 500.017 500.017 1 0 0 0 0
724	209702 19 1180 1180 500.017 500.017 1 0 0 0 0
725	209721 19 1180 1180 500.017 500.017 1 0 0 0 0
726	209740 19 1180 1180 500.017 500.017 1 0 0 0 0
727	209759 19 1180 1180 500.017 500.017 1 1 1 1 1
728	209778 33 1180 1180 500.017 500.017 1 299.78140932472 299.78140932472 299.78140932472 89868.893376717
729	209811 19 1180 1180 500.017 500.017 1 1 1 1 1
730	209830 19 1180 1180 500.017 500.017 1 1 1 1 1
731	209849 19 1180 1180 500.017 500.017 1 0 0 0 0
732	209868 19 1180 1180 500.017 500.017 1 0 0 0 0
733	209887 19 1180 1180 500.017 500.017 1 0 0 0 0
734	209906 19 1180 1180 500.017 500.017 1 0 0 0 0
735	209925 19 1180 1180 500.017 500.017 1 0 0 0 0
736	209944 19 1180 1180 500.017 500.017 1 1 1 1 1
737	209963 19 1180 1180 500.017 500.017 1 0 0 0 0
738	209982 19 1180 1180 500.017 500.017 1 0 0 0 0
739	210001 19 1180 1180 500.017 500.017 1 1 1 1 1
740	210020 38 1181 1218 500.017 500.018 2 0 5 5 25
741	210058 33 1182 1182 500.017 500.017 1 234.47911966417 234.47911966417 234.47911966417 54980.457558484
742	210091 22 1182 1182 500.017 500.017 1 1051 1051 1051 1104601
743	210113 19 1182 1182 500.017 500.017 1 1 1 1 1
744	210132 19 1182 1182 500.017 500.017 1 0 0 0 0
745	210151 19 1182 1182 500.017 500.017 1 1 1 1 1
746	210170 19 1182 1182 500.017 500.017 1 0 0 0 0
747	210189 19 1182 1182 500.017 500.017 1 0 0 0 0
748	210208 19 1182 1182 500.017 500.017 1 0 0 0 0
749	210227 19 1182 1182 500.017 500.017 1 0 0 0 0
750	210246 19 1182 1182 500.017 500.017 1 1 1 1 1
751	210265 33 1182 1182 500.017 500.017 1 234.47911966417 234.47911966417 234.47911966417 54980.457558484
752	210298 19 1182 1182 500.017 500.017 1 1 1 1 1
753	210317 19 1182 1182 500.017 500.017 1 1 1 1 1
754	210336 19 1182 1182 500.017 500.017 1 0 0 0 0
755	210355 19 1182 1182 500.017 500.017 1 0 0 0 0
756	210374 19 1182 1182 500.017 500.017 1 0 0 0 0
757	210393 19 1182 1182 500.017 500.017 1 0 0 0 0
758	210412 19 1182 1182 500.017 500.017 1 0 0 0 0
759	210431 19 1182 1182 500.017 500.017 1 1 1 1 1
760	210450 19 1182 1182 500.017 500.017 1 0 0 0 0
761	210469 19 1182 1182 500.017 500.017 1 0 0 0 0
762	210488 19 1182 1182 500.017 500.017 1 1 1 1 1
763	210507 19 1183 1183 500.017 500.017 1 5 5 5 25
764	210526 33 1184 1184 500.017 500.017 1 530.33965510754 530.33965510754 530.33965510754 281260.14977959
765	210559 22 1184 1184 500.017 500.017 1 1051 1051 1051 1104601
766	210581 19 1184 1184 500.017 500.017 1 1 1 1 1
767	210600 19 1184 1184 500.017 500.017 1 0 0 0 0
768	210619 19 1184 1184 500.017 500.017 1 1 1 1 1
769	210638 19 1184 1184 500.017 500.017 1 0 0 0 0
770	210657 19 1184 1184 500.017 500.017 1 0 0 0 0
771	210676 19 1184 1184 500.017 500.017 1 0 0 0 0
772	210695 19 1184 1184 500.017 500.017 1 0 0 0 0
773	210714 19 1184 1184 500.017 500.017 1 1 1 1 1
774	210733 33 1184 1184 500.017 500.017 1 530.33965510754 530.33965510754 530.33965510754 281260.14977959
775	210766 19 1184 1184 500.017 500.017 1 1 1 1 1
776	210785 19 1184 1184 500.017 500.017 1 1 1 1 1
777	210804 19 1184 1184 500.017 500.017 1 0 0 0 0
778	210823 19 1184 1184 500.017 500.017 1 0 0 0 0
779	210842 19 1184 1184 500.017 500.017 1 0 0 0 0
780	210861 19 1184 1184 500.017 500.017 1 0 0 0 0
781	210880 19 1184 1184 500.017 500.017 1 0 0 0 0
782	210899 19 1184 1184 500.017 500.017 1 1 1 1 1
783	210918 19 1184 1184 500.017 500.017 1 0 0 0 0
784	210937 19 1184 1184 500.017 500.017 1 0 0 0 0
785	210956 19 1184 1184 500.017 500.017 1 1 1 1 1
786	210975 19 1185 1185 500.017 500.017 1 5 5 5 25
787	210994 32 1186 1186 500.017 500.017 1 1272.303727515 1272.303727515 1272.303727515 1618756.7750487
788	211026 22 1186 1186 500.017 500.017 1 1051 1051 1051 1104601
789	211048 19 1186 1186 500.017 500.017 1 1 1 1 1
790	211067 19 1186 1186 500.017 500.017 1 1 1 1 1
791	211086 19 1186 1186 500.017 500.017 1 0 0 0 0
792	211105 19 1186 1186 500.017 500.017 1 0 0 0 0
793	211124 19 1186 1186 500.017 500.017 1 0 0 0 0
794	211143 19 1186 1186 500.017 500.017 1 0 0 0 0
795	211162 19 1186 1186 500.017 500.017 1 0 0 0 0
796	211181 19 1186 1186 500.017 500.017 1 1 1 1 1
797	211200 32 1186 1186 500.017 500.017 1 1272.303727515 1272.303727515 1272.303727515 1618756.7750487
798	211232 19 1186 1186 500.017 500.017 1 1 1 1 1
799	211251 19 1186 1186 500.017 500.017 1 0 0 0 0
800	211270 19 1186 1186 500.017 500.017 1 1 1 1 1
801	211289 19 1186 1186 500.017 500.017 1 0 0 0 0
802	211308 19 1186 1186 500.017 500.017 1 0 0 0 0
803	211327 19 1186 1186 500.017 500.017 1 0 0 0 0
804	211346 19 1186 1186 500.017 500.017 1 0 0 0 0
805	211365 19 1186 1186 500.017 500.017 1 1 1 1 1
806	211384 19 1186 1186 500.017 500.017 1 0 0 0 0
807	211403 19 1186 1186 500.017 500.017 1 0 0 0 0
808	211422 19 1186 1186 500.017 500.017 1 1 1 1 1
809	211441 19 1187 1187 500.017 500.017 1 5 5 5 25
810	211460 36 1213 1213 500.018 500.018 1 0.0033670033670034 0.0033670033670034 0.0033670033670034 1.1336711673412e-05
811	211496 36 1213 1213 500.018 500.018 1 0.0033670033670034 0.0033670033670034 0.0033670033670034 1.1336711673412e-05
812	211532 38 1218 1348 500.018 500.018 2 0 3 3 9
813	211570 38 1221 1351 500.018 500.018 2 0 0 0 0
814	211608 36 1222 1222 500.018 500.018 1 0.0033670033670034 0.0033670033670034 0.0033670033670034 1.1336711673412e-05
815	211644 23 1223 1223 500.018 500.018 1 0.002 0.002 0.002 4e-06
816	211667 19 1223 1223 500.018 500.018 1 3 3 3 9
817	211686 19 1226 1226 500.018 500.018 1 1 1 1 1
818	211705 19 1226 1226 500.018 500.018 1 0 0 0 0
819	211724 22 1227 1227 500.018 500.018 1 0.01 0.01 0.01 0.0001
820	211746 19 1227 1227 500.018 500.018 1 1 1 1 1
821	211765 23 1228 1228 500.018 500.018 1 0.002 0.002 0.002 4e-06
822	211788 19 1228 1228 500.018 500.018 1 3 3 3 9
823	211807 19 1231 1231 500.018 500.018 1 1 1 1 1
824	211826 19 1231 1231 500.018 500.018 1 0 0 0 0
825	211845 22 1232 1232 500.018 500.018 1 0.01 0.01 0.01 0.0001
826	211867 19 1232 1232 500.018 500.018 1 1 1 1 1
827	211886 23 1233 1233 500.018 500.018 1 0.002 0.002 0.002 4e-06
828	211909 19 1233 1233 500.018 500.018 1 3 3 3 9
829	211928 19 1236 1236 500.018 500.018 1 1 1 1 1
830	211947 19 1236 1236 500.018 500.018 1 0 0 0 0
831	211966 22 1237 1237 500.018 500.018 1 0.01 0.01 0.01 0.0001
832	211988 19 1237 1237 500.018 500.018 1 1 1 1 1
833	212007 23 1238 1238 500.018 500.018 1 0.002 0.002 0.002 4e-06
834	212030 19 1238 1238 500.018 500.018 1 3 3 3 9
835	212049 19 1241 1241 500.018 500.018 1 1 1 1 1
836	212068 19 1241 1241 500.018 500.018 1 0 0 0 0
837	212087 22 1242 1242 500.018 500.018 1 0.01 0.01 0.01 0.0001
838	212109 19 1242 1242 500.018 500.018 1 1 1 1 1
839	212128 23 1243 1243 500.018 500.018 1 0.002 0.002 0.002 4e-06
840	212151 19 1243 1243 500.018 500.018 1 3 3 3 9
841	212170 19 1246 1246 500.018 500.018 1 1 1 1 1
842	212189 19 1246 1246 500.018 500.018 1 0 0 0 0
843	212208 22 1247 1247 500.018 500.018 1 0.01 0.01 0.01 0.0001
844	212230 19 1247 1247 500.018 500.018 1 1 1 1 1
845	212249 23 1248 1248 500.018 500.018 1 0.002 0.002 0.002 4e-06
846	212272 19 1248 1248 500.018 500.018 1 3 3 3 9
847	212291 19 1251 1251 500.018 500.018 1 1 1 1 1
848	212310 19 1251 1251 500.018 500.018 1 0 0 0 0
849	212329 22 1252 1252 500.018 500.018 1 0.01 0.01 0.01 0.0001
850	212351 19 1252 1252 500.018 500.018 1 1 1 1 1
851	212370 23 1253 1253 500.018 500.018 1 0.002 0.002 0.002 4e-06
852	212393 19 1253 1253 500.018 500.018 1 3 3 3 9
853	212412 19 1256 1256 500.018 500.018 1 1 1 1 1
854	212431 19 1256 1256 500.018 500.018 1 0 0 0 0
855	212450 22 1257 1257 500.018 500.018 1 0.01 0.01 0.01 0.0001
856	212472 19 1257 1257 500.018 500.018 1 1 1 1 1
857	212491 23 1258 1258 500.018 500.018 1 0.002 0.002 0.002 4e-06
858	212514 19 1258 1258 500.018 500.018 1 3 3 3 9
859	212533 19 1261 1261 500.018 500.018 1 1 1 1 1
860	212552 19 1261 1261 500.018 500.018 1 0 0 0 0
861	212571 22 1262 1262 500.018 500.018 1 0.01 0.01 0.01 0.0001
862	212593 19 1262 1262 500.018 500.018 1 1 1 1 1
863	212612 23 1263 1263 500.018 500.018 1 0.002 0.002 0.002 4e-06
864	212635 19 1263 1263 500.018 500.018 1 3 3 3 9
865	212654 19 1266 1266 500.018 500.018 1 1 1 1 1
866	212673 19 1266 1266 500.018 500.018 1 0 0 0 0
867	212692 22 1267 1267 500.018 500.018 1 0.01 0.01 0.01 0.0001
868	212714 19 1267 1267 500.018 500.018 1 1 1 1 1
869	212733 23 1268 1268 500.018 500.018 1 0.002 0.002 0.002 4e-06
870	212756 19 1268 1268 500.018 500.018 1 3 3 3 9
871	212775 19 1271 1271 500.018 500.018 1 1 1 1 1
872	212794 19 1271 1271 500.018 500.018 1 0 0 0 0
873	212813 22 1272 1272 500.018 500.018 1 0.01 0.01 0.01 0.0001
874	212835 19 1272 1272 500.018 500.018 1 1 1 1 1
875	212854 23 1273 1273 500.018 500.018 1 0.002 0.002 0.002 4e-06
876	212877 19 1273 1273 500.018 500.018 1 3 3 3 9
877	212896 19 1276 1276 500.018 500.018 1 1 1 1 1
878	212915 19 1276 1276 500.018 500.018 1 0 0 0 0
879	212934 22 1277 1277 500.018 500.018 1 0.01 0.01 0.01 0.0001
880	212956 19 1277 1277 500.018 500.018 1 1 1 1 1
881	212975 23 1278 1278 500.018 500.018 1 0.002 0.002 0.002 4e-06
882	212998 19 1278 1278 500.018 500.018 1 3 3 3 9
883	213017 19 1281 1281 500.018 500.018 1 1 1 1 1
884	213036 19 1281 1281 500.018 500.018 1 0 0 0 0
885	213055 22 1282 1282 500.018 500.018 1 0.01 0.01 0.01 0.0001
886	213077 19 1282 1282 500.018 500.018 1 1 1 1 1
887	213096 23 1283 1283 500.018 500.018 1 0.002 0.002 0.002 4e-06
888	213119 19 1283 1283 500.018 500.018 1 3 3 3 9
889	213138 19 1286 1286 500.018 500.018 1 1 1 1 1
890	213157 19 1286 1286 500.018 500.018 1 0 0 0 0
891	213176 22 1287 1287 500.018 500.018 1 0.01 0.01 0.01 0.0001
892	213198 19 1287 1287 500.018 500.018 1 1 1 1 1
893	213217 23 1288 1288 500.018 500.018 1 0.002 0.002 0.002 4e-06
894	213240 19 1291 1291 500.018 500.018 1 1 1 1 1
895	213259 22 1292 1292 500.018 500.018 1 0.01 0.01 0.01 0.0001
896	213281 19 1292 1292 500.018 500.018 1 1 1 1 1
897	213300 23 1293 1293 500.018 500.018 1 0.002 0.002 0.002 4e-06
898	213323 19 1293 1293 500.018 500.018 1 3 3 3 9
899	213342 19 1296 1296 500.018 500.018 1 1 1 1 1
900	213361 19 1296 1296 500.018 500.018 1 0 0 0 0
901	213380 22 1297 1297 500.018 500.018 1 0.01 0.01 0.01 0.0001
902	213402 19 1297 1297 500.018 500.018 1 1 1 1 1
903	213421 23 1298 1298 500.018 500.018 1 0.002 0.002 0.002 4e-06
904	213444 19 1298 1298 500.018 500.018 1 3 3 3 9
905	213463 19 1301 1301 500.018 500.018 1 1 1 1 1
906	213482 19 1301 1301 500.018 500.018 1 0 0 0 0
907	213501 22 1302 1302 500.018 500.018 1 0.01 0.01 0.01 0.0001
908	213523 19 1302 1302 500.018 500.018 1 1 1 1 1
909	213542 23 1303 1303 500.018 500.018 1 0.002 0.002 0.002 4e-06
910	213565 19 1303 1303 500.018 500.018 1 3 3 3 9
911	213584 19 1306 1306 500.018 500.018 1 1 1 1 1
912	213603 19 1306 1306 500.018 500.018 1 0 0 0 0
913	213622 22 1307 1307 500.018 500.018 1 0.01 0.01 0.01 0.0001
914	213644 19 1307 1307 500.018 500.018 1 1 1 1 1
915	213663 23 1308 1308 500.018 500.018 1 0.002 0.002 0.002 4e-06
916	213686 19 1308 1308 500.018 500.018 1 3 3 3 9
917	213705 19 1311 1311 500.018 500.018 1 1 1 1 1
918	213724 19 1311 1311 500.018 500.018 1 0 0 0 0
919	213743 22 1312 1312 500.018 500.018 1 0.01 0.01 0.01 0.0001
920	213765 19 1312 1312 500.018 500.018 1 1 1 1 1
921	213784 23 1313 1313 500.018 500.018 1 0.002 0.002 0.002 4e-06
922	213807 19 1313 1313 500.018 500.018 1 3 3 3 9
923	213826 19 1316 1316 500.018 500.018 1 1 1 1 1
924	213845 19 1316 1316 500.018 500.018 1 0 0 0 0
925	213864 22 1317 1317 500.018 500.018 1 0.01 0.01 0.01 0.0001
926	213886 19 1317 1317 500.018 500.018 1 1 1 1 1
927	213905 23 1318 1318 500.018 500.018 1 0.002 0.002 0.002 4e-06
928	213928 38 1318 1699 500.018 500.024 2 0 3 3 9
929	213966 19 1321 1321 500.018 500.018 1 1 1 1 1
930	213985 38 1321 1702 500.018 500.024 2 0 0 0 0
931	214023 22 1322 1322 500.018 500.018 1 0.01 0.01 0.01 0.0001
932	214045 19 1322 1322 500.018 500.018 1 1 1 1 1
933	214064 23 1323 1323 500.018 500.018 1 0.002 0.002 0.002 4e-06
934	214087 19 1323 1323 500.018 500.018 1 3 3 3 9
935	214106 19 1326 1326 500.018 500.018 1 1 1 1 1
936	214125 19 1326 1326 500.018 500.018 1 0 0 0 0
937	214144 22 1327 1327 500.018 500.018 1 0.01 0.01 0.01 0.0001
938	214166 19 1327 1327 500.018 500.018 1 1 1 1 1
939	214185 23 1328 1328 500.018 500.018 1 0.002 0.002 0.002 4e-06
940	214208 19 1328 1328 500.018 500.018 1 3 3 3 9
941	214227 19 1331 1331 500.018 500.018 1 1 1 1 1
942	214246 19 1331 1331 500.018 500.018 1 0 0 0 0
943	214265 22 1332 1332 500.018 500.018 1 0.01 0.01 0.01 0.0001
944	214287 19 1332 1332 500.018 500.018 1 1 1 1 1
945	214306 23 1333 1333 500.018 500.018 1 0.002 0.002 0.002 4e-06
946	214329 19 1333 1333 500.018 500.018 1 3 3 3 9
947	214348 19 1336 1336 500.018 500.018 1 1 1 1 1
948	214367 19 1336 1336 500.018 500.018 1 0 0 0 0
949	214386 22 1337 1337 500.018 500.018 1 0.01 0.01 0.01 0.0001
950	214408 19 1337 1337 500.018 500.018 1 1 1 1 1
951	214427 23 1338 1338 500.018 500.018 1 0.002 0.002 0.002 4e-06
952	214450 19 1338 1338 500.018 500.018 1 3 3 3 9
953	214469 19 1341 1341 500.018 500.018 1 1 1 1 1
954	214488 19 1341 1341 500.018 500.018 1 0 0 0 0
955	214507 22 1342 1342 500.018 500.018 1 0.01 0.01 0.01 0.0001
956	214529 19 1342 1342 500.018 500.018 1 1 1 1 1
957	214548 23 1343 1343 500.018 500.018 1 0.002 0.002 0.002 4e-06
958	214571 19 1343 1343 500.018 500.018 1 3 3 3 9
959	214590 19 1346 1346 500.018 500.018 1 1 1 1 1
960	214609 19 1346 1346 500.018 500.018 1 0 0 0 0
961	214628 22 1347 1347 500.018 500.018 1 0.01 0.01 0.01 0.0001
962	214650 19 1347 1347 500.018 500.018 1 1 1 1 1
963	214669 23 1348 1348 500.018 500.018 1 0.002 0.002 0.002 4e-06
964	214692 19 1351 1351 500.018 500.018 1 1 1 1 1
965	214711 22 1352 1352 500.018 500.018 1 0.01 0.01 0.01 0.0001
966	214733 19 1352 1352 500.018 500.018 1 1 1 1 1
967	214752 23 1354 1354 500.018 500.018 1 0.002 0.002 0.002 4e-06
968	214775 19 1354 1354 500.018 500.018 1 3 3 3 9
969	214794 19 1357 1357 500.018 500.018 1 1 1 1 1
970	214813 19 1357 1357 500.018 500.018 1 0 0 0 0
971	214832 22 1358 1358 500.018 500.018 1 0.01 0.01 0.01 0.0001
972	214854 19 1358 1358 500.018 500.018 1 1 1 1 1
973	214873 23 1359 1359 500.018 500.018 1 0.002 0.002 0.002 4e-06
974	214896 19 1359 1359 500.018 500.018 1 3 3 3 9
975	214915 19 1362 1362 500.018 500.018 1 1 1 1 1
976	214934 19 1362 1362 500.018 500.018 1 0 0 0 0
977	214953 22 1363 1363 500.018 500.018 1 0.01 0.01 0.01 0.0001
978	214975 19 1363 1363 500.018 500.018 1 1 1 1 1
979	214994 23 1364 1364 500.018 500.018 1 0.002 0.002 0.002 4e-06
980	215017 19 1364 1364 500.018 500.018 1 3 3 3 9
981	215036 19 1367 1367 500.018 500.018 1 1 1 1 1
982	215055 19 1367 1367 500.018 500.018 1 0 0 0 0
983	215074 22 1368 1368 500.018 500.018 1 0.01 0.01 0.01 0.0001
984	215096 19 1368 1368 500.018 500.018 1 1 1 1 1
985	215115 36 1688 1688 500.024 500.024 1 0.0033670033670034 0.0033670033670034 0.0033670033670034 1.1336711673412e-05
986	215151 36 1688 1688 500.024 500.024 1 0.0033670033670034 0.0033670033670034 0.0033670033670034 1.1336711673412e-05
987	215187 36 1703 1703 500.024 500.024 1 0.0033670033670034 0.0033670033670034 0.0033670033670034 1.1336711673412e-05

