file 1611084 1658724169                                         
version 2
run Hackathon114-0-20220725-13:37:21-9347
attr configname Hackathon114
attr datetime 20220725-13:37:21
attr experiment Hackathon114
attr inifile omnetpp.ini
attr iterationvars ""
attr iterationvarsf ""
attr measurement ""
attr network lte.simulations.Mode4.Highway
attr processid 9347
attr repetition 0
attr replication #0
attr resultdir results
attr runnumber 0
attr seedset 0
param *.car[*].d2dCapable true
param *.car[*].mode4D2D true
param **.amcMode "\"D2D\""
param *.car[*].applType "\"Mode4App\""
param *.car[*].appl.packetSize 190
param *.car[*].nicType "\"LteNicVUeMode4\""
param *.car[*].lteNic.d2dCapable true
param *.car[*].lteNic.pdcpRrc.ipBased false
param *.car[*].lteNic.rlc.ipBased false
param *.car[*].lteNic.mac.subchannelSize 16
param *.car[*].lteNic.mac.numSubchannels 3
param *.car[*].lteNic.mac.probResourceKeep 0.4
param *.car[*].lteNic.mac.useCBR false
param *.car[*].lteNic.mac.crLimit false
param *.car[*].lteNic.mac.rriLookup false
param *.car[*].lteNic.mac.dccMechanism false
param *.car[*].lteNic.mac.packetDropping false
param *.car[*].lteNic.mac.reselectAfter 1
param *.car[*].lteNic.mac.adjacencyPSCCHPSSCH true
param *.car[*].lteNic.rlc.um.scenario3gpp false
param *.car[*].lteNic.phy.subchannelSize 16
param *.car[*].lteNic.phy.numSubchannels 3
param *.car[*].lteNic.phy.selectionWindowStartingSubframe 1
param *.car[*].lteNic.phy.adjacencyPSCCHPSSCH true
param *.car[*].lteNic.phy.pStep 100
param *.car[*].lteNic.phy.thresholdRSSI 10
param *.car[*].ueTxPower 23
param *.car[*].lteNic.phy.d2dTxPower 23
param *.**.nic.lteNic.phy.usePropagationDelay true
param *.visualizer.mediumVisualizer.displaySignals true
param *.visualizer.physicalLinkVisualizer.displayLinks true
param *.visualizer.physicalLinkVisualizer.packetFilter "\"Mode4Data*\""
param **.usePreconfiguredTxParams true
param **.lteNic.mac.txConfig "xmldoc(\"sidelink_configuration.xml\")"
param **.coreDebug false
param **.routingRecorder.enabled false
param *.playgroundSizeX 2000000m
param *.playgroundSizeY 2000000m
param *.playgroundSizeZ 50m
param **.channelControl.pMax 10W
param **.channelControl.alpha 1.0
param **.channelControl.carrierFrequency 6000e+6Hz
param **.lteNic.phy.channelModel "xmldoc(\"config_channel.xml\")"
param **.feedbackComputation "xmldoc(\"config_channel.xml\")"
param **.rbAllocationType "\"localized\""
param **.feedbackType "\"ALLBANDS\""
param **.feedbackGeneratorType "\"IDEAL\""
param **.maxHarqRtx 0
param **.deployer.ruRange 50
param **.deployer.ruTxPower "\"50,50,50;\""
param **.deployer.antennaCws "\"2;\""
param **.deployer.numRbDl 51
param **.deployer.numRbUl 48
param **.numBands 48
param **.fbDelay 1
param *.veinsManager.moduleType "\"lte.corenetwork.nodes.cars.CarIPv6\""
param *.veinsManager.moduleName "\"car\""
param *.veinsManager.moduleDisplayString "\"\""
param *.veinsManager.launchConfig "xmldoc(\"highway/006vpm/highway.launchd.xml\")"
param *.veinsManager.updateInterval 0.1s
param *.veinsManager.firstStepAt 500s
param *.car[*].mobilityType "\"VeinsInetMobility\""
param **.deployer.positionUpdateInterval 0.01s

vector 0 Highway.car[0].lteNic.phy servingCell:vector ETV
attr source servingCell
attr title "ID of the serving eNodeB for the UE, vector"
attr unit ""
vector 1 Highway.car[0].lteNic.mac macNodeID:vector ETV
attr source macNodeID
attr title "Reports Mac NodeID to allow for trans to nodeID, vector"
vector 2 Highway.car[1].lteNic.phy servingCell:vector ETV
attr source servingCell
attr title "ID of the serving eNodeB for the UE, vector"
attr unit ""
vector 3 Highway.car[1].lteNic.mac macNodeID:vector ETV
attr source macNodeID
attr title "Reports Mac NodeID to allow for trans to nodeID, vector"
vector 4 Highway.car[2].lteNic.phy servingCell:vector ETV
attr source servingCell
attr title "ID of the serving eNodeB for the UE, vector"
attr unit ""
vector 5 Highway.car[2].lteNic.mac macNodeID:vector ETV
attr source macNodeID
attr title "Reports Mac NodeID to allow for trans to nodeID, vector"
vector 6 Highway.car[3].lteNic.phy servingCell:vector ETV
attr source servingCell
attr title "ID of the serving eNodeB for the UE, vector"
attr unit ""
vector 7 Highway.car[3].lteNic.mac macNodeID:vector ETV
attr source macNodeID
attr title "Reports Mac NodeID to allow for trans to nodeID, vector"
vector 8 Highway.car[4].lteNic.phy servingCell:vector ETV
attr source servingCell
attr title "ID of the serving eNodeB for the UE, vector"
attr unit ""
vector 9 Highway.car[4].lteNic.mac macNodeID:vector ETV
attr source macNodeID
attr title "Reports Mac NodeID to allow for trans to nodeID, vector"
vector 10 Highway.car[5].lteNic.phy servingCell:vector ETV
attr source servingCell
attr title "ID of the serving eNodeB for the UE, vector"
attr unit ""
vector 11 Highway.car[5].lteNic.mac macNodeID:vector ETV
attr source macNodeID
attr title "Reports Mac NodeID to allow for trans to nodeID, vector"
vector 12 Highway.car[6].lteNic.phy servingCell:vector ETV
attr source servingCell
attr title "ID of the serving eNodeB for the UE, vector"
attr unit ""
vector 13 Highway.car[6].lteNic.mac macNodeID:vector ETV
attr source macNodeID
attr title "Reports Mac NodeID to allow for trans to nodeID, vector"
vector 14 Highway.car[7].lteNic.phy servingCell:vector ETV
attr source servingCell
attr title "ID of the serving eNodeB for the UE, vector"
attr unit ""
vector 15 Highway.car[7].lteNic.mac macNodeID:vector ETV
attr source macNodeID
attr title "Reports Mac NodeID to allow for trans to nodeID, vector"
vector 16 Highway.car[8].lteNic.phy servingCell:vector ETV
attr source servingCell
attr title "ID of the serving eNodeB for the UE, vector"
attr unit ""
vector 17 Highway.car[8].lteNic.mac macNodeID:vector ETV
attr source macNodeID
attr title "Reports Mac NodeID to allow for trans to nodeID, vector"
vector 18 Highway.car[9].lteNic.phy servingCell:vector ETV
attr source servingCell
attr title "ID of the serving eNodeB for the UE, vector"
attr unit ""
vector 19 Highway.car[9].lteNic.mac macNodeID:vector ETV
attr source macNodeID
attr title "Reports Mac NodeID to allow for trans to nodeID, vector"
vector 20 Highway.car[10].lteNic.phy servingCell:vector ETV
attr source servingCell
attr title "ID of the serving eNodeB for the UE, vector"
attr unit ""
vector 21 Highway.car[10].lteNic.mac macNodeID:vector ETV
attr source macNodeID
attr title "Reports Mac NodeID to allow for trans to nodeID, vector"
vector 22 Highway.car[11].lteNic.phy servingCell:vector ETV
attr source servingCell
attr title "ID of the serving eNodeB for the UE, vector"
attr unit ""
vector 23 Highway.car[11].lteNic.mac macNodeID:vector ETV
attr source macNodeID
attr title "Reports Mac NodeID to allow for trans to nodeID, vector"
vector 24 Highway.car[12].lteNic.phy servingCell:vector ETV
attr source servingCell
attr title "ID of the serving eNodeB for the UE, vector"
attr unit ""
vector 25 Highway.car[12].lteNic.mac macNodeID:vector ETV
attr source macNodeID
attr title "Reports Mac NodeID to allow for trans to nodeID, vector"
vector 26 Highway.car[13].lteNic.phy servingCell:vector ETV
attr source servingCell
attr title "ID of the serving eNodeB for the UE, vector"
attr unit ""
vector 27 Highway.car[13].lteNic.mac macNodeID:vector ETV
attr source macNodeID
attr title "Reports Mac NodeID to allow for trans to nodeID, vector"
vector 28 Highway.car[14].lteNic.phy servingCell:vector ETV
attr source servingCell
attr title "ID of the serving eNodeB for the UE, vector"
attr unit ""
vector 29 Highway.car[14].lteNic.mac macNodeID:vector ETV
attr source macNodeID
attr title "Reports Mac NodeID to allow for trans to nodeID, vector"
vector 30 Highway.car[15].lteNic.phy servingCell:vector ETV
attr source servingCell
attr title "ID of the serving eNodeB for the UE, vector"
attr unit ""
vector 31 Highway.car[15].lteNic.mac macNodeID:vector ETV
attr source macNodeID
attr title "Reports Mac NodeID to allow for trans to nodeID, vector"
vector 32 Highway.car[16].lteNic.phy servingCell:vector ETV
attr source servingCell
attr title "ID of the serving eNodeB for the UE, vector"
attr unit ""
vector 33 Highway.car[16].lteNic.mac macNodeID:vector ETV
attr source macNodeID
attr title "Reports Mac NodeID to allow for trans to nodeID, vector"
vector 34 Highway.car[17].lteNic.phy servingCell:vector ETV
attr source servingCell
attr title "ID of the serving eNodeB for the UE, vector"
attr unit ""
vector 35 Highway.car[17].lteNic.mac macNodeID:vector ETV
attr source macNodeID
attr title "Reports Mac NodeID to allow for trans to nodeID, vector"
vector 36 Highway.car[18].lteNic.phy servingCell:vector ETV
attr source servingCell
attr title "ID of the serving eNodeB for the UE, vector"
attr unit ""
vector 37 Highway.car[18].lteNic.mac macNodeID:vector ETV
attr source macNodeID
attr title "Reports Mac NodeID to allow for trans to nodeID, vector"
vector 38 Highway.car[19].lteNic.phy servingCell:vector ETV
attr source servingCell
attr title "ID of the serving eNodeB for the UE, vector"
attr unit ""
vector 39 Highway.car[19].lteNic.mac macNodeID:vector ETV
attr source macNodeID
attr title "Reports Mac NodeID to allow for trans to nodeID, vector"
vector 40 Highway.car[20].lteNic.phy servingCell:vector ETV
attr source servingCell
attr title "ID of the serving eNodeB for the UE, vector"
attr unit ""
vector 41 Highway.car[20].lteNic.mac macNodeID:vector ETV
attr source macNodeID
attr title "Reports Mac NodeID to allow for trans to nodeID, vector"
vector 42 Highway.car[21].lteNic.phy servingCell:vector ETV
attr source servingCell
attr title "ID of the serving eNodeB for the UE, vector"
attr unit ""
vector 43 Highway.car[21].lteNic.mac macNodeID:vector ETV
attr source macNodeID
attr title "Reports Mac NodeID to allow for trans to nodeID, vector"
vector 44 Highway.car[22].lteNic.phy servingCell:vector ETV
attr source servingCell
attr title "ID of the serving eNodeB for the UE, vector"
attr unit ""
vector 45 Highway.car[22].lteNic.mac macNodeID:vector ETV
attr source macNodeID
attr title "Reports Mac NodeID to allow for trans to nodeID, vector"
vector 46 Highway.car[23].lteNic.phy servingCell:vector ETV
attr source servingCell
attr title "ID of the serving eNodeB for the UE, vector"
attr unit ""
vector 47 Highway.car[23].lteNic.mac macNodeID:vector ETV
attr source macNodeID
attr title "Reports Mac NodeID to allow for trans to nodeID, vector"
vector 48 Highway.car[24].lteNic.phy servingCell:vector ETV
attr source servingCell
attr title "ID of the serving eNodeB for the UE, vector"
attr unit ""
vector 49 Highway.car[24].lteNic.mac macNodeID:vector ETV
attr source macNodeID
attr title "Reports Mac NodeID to allow for trans to nodeID, vector"
vector 50 Highway.car[25].lteNic.phy servingCell:vector ETV
attr source servingCell
attr title "ID of the serving eNodeB for the UE, vector"
attr unit ""
vector 51 Highway.car[25].lteNic.mac macNodeID:vector ETV
attr source macNodeID
attr title "Reports Mac NodeID to allow for trans to nodeID, vector"
vector 52 Highway.car[26].lteNic.phy servingCell:vector ETV
attr source servingCell
attr title "ID of the serving eNodeB for the UE, vector"
attr unit ""
vector 53 Highway.car[26].lteNic.mac macNodeID:vector ETV
attr source macNodeID
attr title "Reports Mac NodeID to allow for trans to nodeID, vector"
vector 54 Highway.car[27].lteNic.phy servingCell:vector ETV
attr source servingCell
attr title "ID of the serving eNodeB for the UE, vector"
attr unit ""
vector 55 Highway.car[27].lteNic.mac macNodeID:vector ETV
attr source macNodeID
attr title "Reports Mac NodeID to allow for trans to nodeID, vector"
vector 56 Highway.car[28].lteNic.phy servingCell:vector ETV
attr source servingCell
attr title "ID of the serving eNodeB for the UE, vector"
attr unit ""
vector 57 Highway.car[28].lteNic.mac macNodeID:vector ETV
attr source macNodeID
attr title "Reports Mac NodeID to allow for trans to nodeID, vector"
vector 58 Highway.car[29].lteNic.phy servingCell:vector ETV
attr source servingCell
attr title "ID of the serving eNodeB for the UE, vector"
attr unit ""
vector 59 Highway.car[29].lteNic.mac macNodeID:vector ETV
attr source macNodeID
attr title "Reports Mac NodeID to allow for trans to nodeID, vector"
vector 60 Highway.car[0].lteNic.phy posX:vector ETV
attr source posX
attr title "X position of node (at reception time), vector"
vector 61 Highway.car[0].lteNic.phy posY:vector ETV
attr source posY
attr title "Y position of node (at reception time), vector"
vector 62 Highway.car[1].lteNic.phy posX:vector ETV
attr source posX
attr title "X position of node (at reception time), vector"
vector 63 Highway.car[1].lteNic.phy posY:vector ETV
attr source posY
attr title "Y position of node (at reception time), vector"
vector 64 Highway.car[2].lteNic.phy posX:vector ETV
attr source posX
attr title "X position of node (at reception time), vector"
vector 65 Highway.car[2].lteNic.phy posY:vector ETV
attr source posY
attr title "Y position of node (at reception time), vector"
vector 66 Highway.car[3].lteNic.phy posX:vector ETV
attr source posX
attr title "X position of node (at reception time), vector"
vector 67 Highway.car[3].lteNic.phy posY:vector ETV
attr source posY
attr title "Y position of node (at reception time), vector"
vector 68 Highway.car[4].lteNic.phy posX:vector ETV
attr source posX
attr title "X position of node (at reception time), vector"
vector 69 Highway.car[4].lteNic.phy posY:vector ETV
attr source posY
attr title "Y position of node (at reception time), vector"
vector 70 Highway.car[5].lteNic.phy posX:vector ETV
attr source posX
attr title "X position of node (at reception time), vector"
vector 71 Highway.car[5].lteNic.phy posY:vector ETV
attr source posY
attr title "Y position of node (at reception time), vector"
vector 72 Highway.car[6].lteNic.phy posX:vector ETV
attr source posX
attr title "X position of node (at reception time), vector"
vector 73 Highway.car[6].lteNic.phy posY:vector ETV
attr source posY
attr title "Y position of node (at reception time), vector"
vector 74 Highway.car[7].lteNic.phy posX:vector ETV
attr source posX
attr title "X position of node (at reception time), vector"
vector 75 Highway.car[7].lteNic.phy posY:vector ETV
attr source posY
attr title "Y position of node (at reception time), vector"
vector 76 Highway.car[8].lteNic.phy posX:vector ETV
attr source posX
attr title "X position of node (at reception time), vector"
vector 77 Highway.car[8].lteNic.phy posY:vector ETV
attr source posY
attr title "Y position of node (at reception time), vector"
vector 78 Highway.car[9].lteNic.phy posX:vector ETV
attr source posX
attr title "X position of node (at reception time), vector"
vector 79 Highway.car[9].lteNic.phy posY:vector ETV
attr source posY
attr title "Y position of node (at reception time), vector"
vector 80 Highway.car[10].lteNic.phy posX:vector ETV
attr source posX
attr title "X position of node (at reception time), vector"
vector 81 Highway.car[10].lteNic.phy posY:vector ETV
attr source posY
attr title "Y position of node (at reception time), vector"
vector 82 Highway.car[11].lteNic.phy posX:vector ETV
attr source posX
attr title "X position of node (at reception time), vector"
vector 83 Highway.car[11].lteNic.phy posY:vector ETV
attr source posY
attr title "Y position of node (at reception time), vector"
vector 84 Highway.car[12].lteNic.phy posX:vector ETV
attr source posX
attr title "X position of node (at reception time), vector"
vector 85 Highway.car[12].lteNic.phy posY:vector ETV
attr source posY
attr title "Y position of node (at reception time), vector"
vector 86 Highway.car[13].lteNic.phy posX:vector ETV
attr source posX
attr title "X position of node (at reception time), vector"
vector 87 Highway.car[13].lteNic.phy posY:vector ETV
attr source posY
attr title "Y position of node (at reception time), vector"
vector 88 Highway.car[13].lteNic.phy cbr:vector ETV
attr source cbr
attr title "Channel Busy Ratio, vector"
vector 89 Highway.car[13].lteNic.phy cbrPscch:vector ETV
attr source cbrPscch
attr title "Channel Busy Ratio for PSCCH, vector"
vector 90 Highway.car[14].lteNic.phy posX:vector ETV
attr source posX
attr title "X position of node (at reception time), vector"
vector 91 Highway.car[14].lteNic.phy posY:vector ETV
attr source posY
attr title "Y position of node (at reception time), vector"
vector 92 Highway.car[15].lteNic.phy posX:vector ETV
attr source posX
attr title "X position of node (at reception time), vector"
vector 93 Highway.car[15].lteNic.phy posY:vector ETV
attr source posY
attr title "Y position of node (at reception time), vector"
vector 94 Highway.car[16].lteNic.phy posX:vector ETV
attr source posX
attr title "X position of node (at reception time), vector"
vector 95 Highway.car[16].lteNic.phy posY:vector ETV
attr source posY
attr title "Y position of node (at reception time), vector"
vector 96 Highway.car[17].lteNic.phy posX:vector ETV
attr source posX
attr title "X position of node (at reception time), vector"
vector 97 Highway.car[17].lteNic.phy posY:vector ETV
attr source posY
attr title "Y position of node (at reception time), vector"
vector 98 Highway.car[18].lteNic.phy posX:vector ETV
attr source posX
attr title "X position of node (at reception time), vector"
vector 99 Highway.car[18].lteNic.phy posY:vector ETV
attr source posY
attr title "Y position of node (at reception time), vector"
vector 100 Highway.car[19].lteNic.phy posX:vector ETV
attr source posX
attr title "X position of node (at reception time), vector"
vector 101 Highway.car[19].lteNic.phy posY:vector ETV
attr source posY
attr title "Y position of node (at reception time), vector"
vector 102 Highway.car[20].lteNic.phy posX:vector ETV
attr source posX
attr title "X position of node (at reception time), vector"
vector 103 Highway.car[20].lteNic.phy posY:vector ETV
attr source posY
attr title "Y position of node (at reception time), vector"
vector 104 Highway.car[21].lteNic.phy posX:vector ETV
attr source posX
attr title "X position of node (at reception time), vector"
vector 105 Highway.car[21].lteNic.phy posY:vector ETV
attr source posY
attr title "Y position of node (at reception time), vector"
vector 106 Highway.car[22].lteNic.phy posX:vector ETV
attr source posX
attr title "X position of node (at reception time), vector"
vector 107 Highway.car[22].lteNic.phy posY:vector ETV
attr source posY
attr title "Y position of node (at reception time), vector"
vector 108 Highway.car[23].lteNic.phy posX:vector ETV
attr source posX
attr title "X position of node (at reception time), vector"
vector 109 Highway.car[23].lteNic.phy posY:vector ETV
attr source posY
attr title "Y position of node (at reception time), vector"
vector 110 Highway.car[24].lteNic.phy posX:vector ETV
attr source posX
attr title "X position of node (at reception time), vector"
vector 111 Highway.car[24].lteNic.phy posY:vector ETV
attr source posY
attr title "Y position of node (at reception time), vector"
vector 112 Highway.car[25].lteNic.phy posX:vector ETV
attr source posX
attr title "X position of node (at reception time), vector"
vector 113 Highway.car[25].lteNic.phy posY:vector ETV
attr source posY
attr title "Y position of node (at reception time), vector"
vector 114 Highway.car[26].lteNic.phy posX:vector ETV
attr source posX
attr title "X position of node (at reception time), vector"
vector 115 Highway.car[26].lteNic.phy posY:vector ETV
attr source posY
attr title "Y position of node (at reception time), vector"
vector 116 Highway.car[27].lteNic.phy posX:vector ETV
attr source posX
attr title "X position of node (at reception time), vector"
vector 117 Highway.car[27].lteNic.phy posY:vector ETV
attr source posY
attr title "Y position of node (at reception time), vector"
vector 118 Highway.car[28].lteNic.phy posX:vector ETV
attr source posX
attr title "X position of node (at reception time), vector"
vector 119 Highway.car[28].lteNic.phy posY:vector ETV
attr source posY
attr title "Y position of node (at reception time), vector"
vector 120 Highway.car[29].lteNic.phy posX:vector ETV
attr source posX
attr title "X position of node (at reception time), vector"
vector 121 Highway.car[29].lteNic.phy posY:vector ETV
attr source posY
attr title "Y position of node (at reception time), vector"
vector 122 Highway.car[13].lteNic.mac receivedPacketFromLowerLayer:vector(packetBytes) ETV
attr interpolationmode none
attr source receivedPacketFromLowerLayer
vector 123 Highway.car[13].lteNic.mac sentPacketToUpperLayer:vector(packetBytes) ETV
attr interpolationmode none
attr source sentPacketToUpperLayer
vector 124 Highway.car[13].lteNic.pdcpRrc sentPacketToUpperLayer:vector(packetBytes) ETV
attr interpolationmode none
attr source sentPacketToUpperLayer
vector 125 Highway.car[13].appl cbr:vector ETV
attr source cbr
attr title "Channel Busy Ratio, vector"
attr unit ""
vector 126 Highway.car[26].appl sentMsg:vector ETV
attr source sentMsg
attr title "Messages sent, vector"
attr unit ""
vector 127 Highway.car[26].lteNic.pdcpRrc receivedPacketFromUpperLayer:vector(packetBytes) ETV
attr interpolationmode none
attr source receivedPacketFromUpperLayer
vector 128 Highway.car[26].lteNic.pdcpRrc sentPacketToLowerLayer:vector(packetBytes) ETV
attr interpolationmode none
attr source sentPacketToLowerLayer
vector 129 Highway.car[26].lteNic.mac resourceReselectionCounter:vector ETV
attr source resourceReselectionCounter
attr title "ResourceReselectionCounter selectedNumber of transmissions, vector"
vector 130 Highway.car[26].lteNic.mac sentPacketToLowerLayer:vector(packetBytes) ETV
attr interpolationmode none
attr source sentPacketToLowerLayer
vector 131 Highway.car[26].lteNic.mac grantRequests:vector ETV
attr source grantRequests
attr title "Total number of requested grants, vector"
vector 132 Highway.car[26].lteNic.mac receivedPacketFromUpperLayer:vector(packetBytes) ETV
attr interpolationmode none
attr source receivedPacketFromUpperLayer
vector 133 Highway.car[26].lteNic.mac receivedPacketFromLowerLayer:vector(packetBytes) ETV
attr interpolationmode none
attr source receivedPacketFromLowerLayer
vector 134 Highway.car[26].lteNic.mac grantStartTime:vector ETV
attr source grantStartTime
attr title "Grant StartTime, vector"
vector 135 Highway.car[26].lteNic.mac selectedSubchannelIndex:vector ETV
attr source selectedSubchannelIndex
attr title "SelectedSubchannelIndex, vector"
vector 136 Highway.car[26].lteNic.mac selectedNumSubchannels:vector ETV
attr source selectedNumSubchannels
attr title "SelectedNumSubchannels, vector"
vector 137 Highway.car[26].lteNic.mac takingReservedGrant:vector ETV
attr source takingReservedGrant
attr title "takingReservedGrant, vector"
vector 138 Highway.car[26].lteNic.mac sentPacketToUpperLayer:vector(packetBytes) ETV
attr interpolationmode none
attr source sentPacketToUpperLayer
vector 139 Highway.car[26].lteNic.mac selectedMCS:vector ETV
attr source selectedMCS
attr title "MCS selected for transmission, vector"
vector 140 Highway.car[26].lteNic.phy sciSent:vector ETV
attr source sciSent
attr title "Number of sci sent, vector"
vector 141 Highway.car[26].lteNic.phy subchannelSent:vector ETV
attr source subchannelSent
attr title "starting Subchannel used for sent message, vector"
vector 142 Highway.car[26].lteNic.phy subchannelsUsedToSend:vector ETV
attr source subchannelsUsedToSend
attr title "Number of subchannels used for message, vector"
vector 143 Highway.car[26].lteNic.phy tbSent:vector ETV
attr source tbSent
attr title "Number of tb sent, vector"
vector 144 Highway.car[0].lteNic.phy txRxDistanceSCI:vector ETV
attr source txRxDistanceSCI
attr title "Distance between transmitter and receiver, vector"
vector 145 Highway.car[0].lteNic.phy senderID:vector ETV
attr source senderID
attr title "ID of node who sent message, vector"
vector 146 Highway.car[0].lteNic.phy sciReceived:vector ETV
attr source sciReceived
attr title "Number of received sci, vector"
vector 147 Highway.car[0].lteNic.phy sciUnsensed:vector ETV
attr source sciUnsensed
attr title "Number of failed SCIs due to RSRP below threshold, vector"
vector 148 Highway.car[0].lteNic.phy sciDecoded:vector ETV
attr source sciDecoded
attr title "Number of sci successfully decoded, vector"
vector 149 Highway.car[0].lteNic.phy sciFailedDueToProp:vector ETV
attr source sciFailedDueToProp
attr title "Number of failed SCIs due to propogation, vector"
vector 150 Highway.car[0].lteNic.phy sciFailedDueToInterference:vector ETV
attr source sciFailedDueToInterference
attr title "Number of failed SCIs due to interference, vector"
vector 151 Highway.car[0].lteNic.phy sciFailedHalfDuplex:vector ETV
attr source sciFailedHalfDuplex
attr title "Number of failed SCIs due to Half Duplex, vector"
vector 152 Highway.car[0].lteNic.phy subchannelReceived:vector ETV
attr source subchannelReceived
attr title "Initial Subchannel on which packet is received, vector"
vector 153 Highway.car[0].lteNic.phy subchannelsUsed:vector ETV
attr source subchannelsUsed
attr title "Number of Subchannels used for the received packet, vector"
vector 154 Highway.car[0].lteNic.phy txRxDistanceTB:vector ETV
attr source txRxDistanceTB
attr title "Distance between transmitter and receiver, vector"
vector 155 Highway.car[0].lteNic.phy tbReceived:vector ETV
attr source tbReceived
attr title "Number of tb received, vector"
vector 156 Highway.car[0].lteNic.phy tbDecoded:vector ETV
attr source tbDecoded
attr title "Number of tb Decoded, vector"
vector 157 Highway.car[0].lteNic.phy tbFailedDueToNoSCI:vector ETV
attr source tbFailedDueToNoSCI
attr title "Number of tb not decoded due to no SCI, vector"
vector 158 Highway.car[0].lteNic.phy tbFailedDueToProp:vector ETV
attr source tbFailedDueToProp
attr title "Number of failed TBs due to propogation, vector"
vector 159 Highway.car[0].lteNic.phy tbFailedDueToInterference:vector ETV
attr source tbFailedDueToInterference
attr title "Number of failed TBs due to interference, vector"
vector 160 Highway.car[0].lteNic.phy tbFailedButSCIReceived:vector ETV
attr source tbFailedButSCIReceived
attr title "Number of failed TBs with a decoded SCI, vector"
vector 161 Highway.car[0].lteNic.phy tbFailedHalfDuplex:vector ETV
attr source tbFailedHalfDuplex
attr title "Number of failed TBs due to Half Duplex, vector"
vector 162 Highway.car[0].lteNic.phy periodic:vector ETV
attr source periodic
attr title "Identifies traffic as periodic or aperiodic, vector"
vector 163 Highway.car[0].lteNic.phy tbFailedDueToPropIgnoreSCI:vector ETV
attr source tbFailedDueToPropIgnoreSCI
attr title "Number of failed TBs due to propogation, vector"
vector 164 Highway.car[0].lteNic.phy tbFailedDueToInterferenceIgnoreSCI:vector ETV
attr source tbFailedDueToInterferenceIgnoreSCI
attr title "Number of failed TBs due to interference, vector"
vector 165 Highway.car[0].lteNic.phy tbDecodedIgnoreSCI:vector ETV
attr source tbDecodedIgnoreSCI
attr title "Number of failed TBs due to interference, vector"
vector 166 Highway.car[0].lteNic.mac receivedPacketFromLowerLayer:vector(packetBytes) ETV
attr interpolationmode none
attr source receivedPacketFromLowerLayer
vector 167 Highway.car[1].lteNic.phy txRxDistanceSCI:vector ETV
attr source txRxDistanceSCI
attr title "Distance between transmitter and receiver, vector"
vector 168 Highway.car[1].lteNic.phy senderID:vector ETV
attr source senderID
attr title "ID of node who sent message, vector"
vector 169 Highway.car[1].lteNic.phy sciReceived:vector ETV
attr source sciReceived
attr title "Number of received sci, vector"
vector 170 Highway.car[1].lteNic.phy sciUnsensed:vector ETV
attr source sciUnsensed
attr title "Number of failed SCIs due to RSRP below threshold, vector"
vector 171 Highway.car[1].lteNic.phy sciDecoded:vector ETV
attr source sciDecoded
attr title "Number of sci successfully decoded, vector"
vector 172 Highway.car[1].lteNic.phy sciFailedDueToProp:vector ETV
attr source sciFailedDueToProp
attr title "Number of failed SCIs due to propogation, vector"
vector 173 Highway.car[1].lteNic.phy sciFailedDueToInterference:vector ETV
attr source sciFailedDueToInterference
attr title "Number of failed SCIs due to interference, vector"
vector 174 Highway.car[1].lteNic.phy sciFailedHalfDuplex:vector ETV
attr source sciFailedHalfDuplex
attr title "Number of failed SCIs due to Half Duplex, vector"
vector 175 Highway.car[1].lteNic.phy subchannelReceived:vector ETV
attr source subchannelReceived
attr title "Initial Subchannel on which packet is received, vector"
vector 176 Highway.car[1].lteNic.phy subchannelsUsed:vector ETV
attr source subchannelsUsed
attr title "Number of Subchannels used for the received packet, vector"
vector 177 Highway.car[1].lteNic.phy txRxDistanceTB:vector ETV
attr source txRxDistanceTB
attr title "Distance between transmitter and receiver, vector"
vector 178 Highway.car[1].lteNic.phy tbReceived:vector ETV
attr source tbReceived
attr title "Number of tb received, vector"
vector 179 Highway.car[1].lteNic.phy tbDecoded:vector ETV
attr source tbDecoded
attr title "Number of tb Decoded, vector"
vector 180 Highway.car[1].lteNic.phy tbFailedDueToNoSCI:vector ETV
attr source tbFailedDueToNoSCI
attr title "Number of tb not decoded due to no SCI, vector"
vector 181 Highway.car[1].lteNic.phy tbFailedDueToProp:vector ETV
attr source tbFailedDueToProp
attr title "Number of failed TBs due to propogation, vector"
vector 182 Highway.car[1].lteNic.phy tbFailedDueToInterference:vector ETV
attr source tbFailedDueToInterference
attr title "Number of failed TBs due to interference, vector"
vector 183 Highway.car[1].lteNic.phy tbFailedButSCIReceived:vector ETV
attr source tbFailedButSCIReceived
attr title "Number of failed TBs with a decoded SCI, vector"
vector 184 Highway.car[1].lteNic.phy tbFailedHalfDuplex:vector ETV
attr source tbFailedHalfDuplex
attr title "Number of failed TBs due to Half Duplex, vector"
vector 185 Highway.car[1].lteNic.phy periodic:vector ETV
attr source periodic
attr title "Identifies traffic as periodic or aperiodic, vector"
vector 186 Highway.car[1].lteNic.phy tbFailedDueToPropIgnoreSCI:vector ETV
attr source tbFailedDueToPropIgnoreSCI
attr title "Number of failed TBs due to propogation, vector"
vector 187 Highway.car[1].lteNic.phy tbFailedDueToInterferenceIgnoreSCI:vector ETV
attr source tbFailedDueToInterferenceIgnoreSCI
attr title "Number of failed TBs due to interference, vector"
vector 188 Highway.car[1].lteNic.phy tbDecodedIgnoreSCI:vector ETV
attr source tbDecodedIgnoreSCI
attr title "Number of failed TBs due to interference, vector"
vector 189 Highway.car[1].lteNic.mac receivedPacketFromLowerLayer:vector(packetBytes) ETV
attr interpolationmode none
attr source receivedPacketFromLowerLayer
vector 190 Highway.car[2].lteNic.phy txRxDistanceSCI:vector ETV
attr source txRxDistanceSCI
attr title "Distance between transmitter and receiver, vector"
vector 191 Highway.car[2].lteNic.phy senderID:vector ETV
attr source senderID
attr title "ID of node who sent message, vector"
vector 192 Highway.car[2].lteNic.phy sciReceived:vector ETV
attr source sciReceived
attr title "Number of received sci, vector"
vector 193 Highway.car[2].lteNic.phy sciUnsensed:vector ETV
attr source sciUnsensed
attr title "Number of failed SCIs due to RSRP below threshold, vector"
vector 194 Highway.car[2].lteNic.phy sciDecoded:vector ETV
attr source sciDecoded
attr title "Number of sci successfully decoded, vector"
vector 195 Highway.car[2].lteNic.phy sciFailedDueToProp:vector ETV
attr source sciFailedDueToProp
attr title "Number of failed SCIs due to propogation, vector"
vector 196 Highway.car[2].lteNic.phy sciFailedDueToInterference:vector ETV
attr source sciFailedDueToInterference
attr title "Number of failed SCIs due to interference, vector"
vector 197 Highway.car[2].lteNic.phy sciFailedHalfDuplex:vector ETV
attr source sciFailedHalfDuplex
attr title "Number of failed SCIs due to Half Duplex, vector"
vector 198 Highway.car[2].lteNic.phy subchannelReceived:vector ETV
attr source subchannelReceived
attr title "Initial Subchannel on which packet is received, vector"
vector 199 Highway.car[2].lteNic.phy subchannelsUsed:vector ETV
attr source subchannelsUsed
attr title "Number of Subchannels used for the received packet, vector"
vector 200 Highway.car[2].lteNic.phy txRxDistanceTB:vector ETV
attr source txRxDistanceTB
attr title "Distance between transmitter and receiver, vector"
vector 201 Highway.car[2].lteNic.phy tbReceived:vector ETV
attr source tbReceived
attr title "Number of tb received, vector"
vector 202 Highway.car[2].lteNic.phy tbDecoded:vector ETV
attr source tbDecoded
attr title "Number of tb Decoded, vector"
vector 203 Highway.car[2].lteNic.phy tbFailedDueToNoSCI:vector ETV
attr source tbFailedDueToNoSCI
attr title "Number of tb not decoded due to no SCI, vector"
vector 204 Highway.car[2].lteNic.phy tbFailedDueToProp:vector ETV
attr source tbFailedDueToProp
attr title "Number of failed TBs due to propogation, vector"
vector 205 Highway.car[2].lteNic.phy tbFailedDueToInterference:vector ETV
attr source tbFailedDueToInterference
attr title "Number of failed TBs due to interference, vector"
vector 206 Highway.car[2].lteNic.phy tbFailedButSCIReceived:vector ETV
attr source tbFailedButSCIReceived
attr title "Number of failed TBs with a decoded SCI, vector"
vector 207 Highway.car[2].lteNic.phy tbFailedHalfDuplex:vector ETV
attr source tbFailedHalfDuplex
attr title "Number of failed TBs due to Half Duplex, vector"
vector 208 Highway.car[2].lteNic.phy periodic:vector ETV
attr source periodic
attr title "Identifies traffic as periodic or aperiodic, vector"
vector 209 Highway.car[2].lteNic.phy tbFailedDueToPropIgnoreSCI:vector ETV
attr source tbFailedDueToPropIgnoreSCI
attr title "Number of failed TBs due to propogation, vector"
vector 210 Highway.car[2].lteNic.phy tbFailedDueToInterferenceIgnoreSCI:vector ETV
attr source tbFailedDueToInterferenceIgnoreSCI
attr title "Number of failed TBs due to interference, vector"
vector 211 Highway.car[2].lteNic.phy tbDecodedIgnoreSCI:vector ETV
attr source tbDecodedIgnoreSCI
attr title "Number of failed TBs due to interference, vector"
vector 212 Highway.car[2].lteNic.mac receivedPacketFromLowerLayer:vector(packetBytes) ETV
attr interpolationmode none
attr source receivedPacketFromLowerLayer
vector 213 Highway.car[3].lteNic.phy txRxDistanceSCI:vector ETV
attr source txRxDistanceSCI
attr title "Distance between transmitter and receiver, vector"
vector 214 Highway.car[3].lteNic.phy senderID:vector ETV
attr source senderID
attr title "ID of node who sent message, vector"
vector 215 Highway.car[3].lteNic.phy sciReceived:vector ETV
attr source sciReceived
attr title "Number of received sci, vector"
vector 216 Highway.car[3].lteNic.phy sciUnsensed:vector ETV
attr source sciUnsensed
attr title "Number of failed SCIs due to RSRP below threshold, vector"
vector 217 Highway.car[3].lteNic.phy sciDecoded:vector ETV
attr source sciDecoded
attr title "Number of sci successfully decoded, vector"
vector 218 Highway.car[3].lteNic.phy sciFailedDueToProp:vector ETV
attr source sciFailedDueToProp
attr title "Number of failed SCIs due to propogation, vector"
vector 219 Highway.car[3].lteNic.phy sciFailedDueToInterference:vector ETV
attr source sciFailedDueToInterference
attr title "Number of failed SCIs due to interference, vector"
vector 220 Highway.car[3].lteNic.phy sciFailedHalfDuplex:vector ETV
attr source sciFailedHalfDuplex
attr title "Number of failed SCIs due to Half Duplex, vector"
vector 221 Highway.car[3].lteNic.phy subchannelReceived:vector ETV
attr source subchannelReceived
attr title "Initial Subchannel on which packet is received, vector"
vector 222 Highway.car[3].lteNic.phy subchannelsUsed:vector ETV
attr source subchannelsUsed
attr title "Number of Subchannels used for the received packet, vector"
vector 223 Highway.car[3].lteNic.phy txRxDistanceTB:vector ETV
attr source txRxDistanceTB
attr title "Distance between transmitter and receiver, vector"
vector 224 Highway.car[3].lteNic.phy tbReceived:vector ETV
attr source tbReceived
attr title "Number of tb received, vector"
vector 225 Highway.car[3].lteNic.phy tbDecoded:vector ETV
attr source tbDecoded
attr title "Number of tb Decoded, vector"
vector 226 Highway.car[3].lteNic.phy tbFailedDueToNoSCI:vector ETV
attr source tbFailedDueToNoSCI
attr title "Number of tb not decoded due to no SCI, vector"
vector 227 Highway.car[3].lteNic.phy tbFailedDueToProp:vector ETV
attr source tbFailedDueToProp
attr title "Number of failed TBs due to propogation, vector"
vector 228 Highway.car[3].lteNic.phy tbFailedDueToInterference:vector ETV
attr source tbFailedDueToInterference
attr title "Number of failed TBs due to interference, vector"
vector 229 Highway.car[3].lteNic.phy tbFailedButSCIReceived:vector ETV
attr source tbFailedButSCIReceived
attr title "Number of failed TBs with a decoded SCI, vector"
vector 230 Highway.car[3].lteNic.phy tbFailedHalfDuplex:vector ETV
attr source tbFailedHalfDuplex
attr title "Number of failed TBs due to Half Duplex, vector"
vector 231 Highway.car[3].lteNic.phy periodic:vector ETV
attr source periodic
attr title "Identifies traffic as periodic or aperiodic, vector"
vector 232 Highway.car[3].lteNic.phy tbFailedDueToPropIgnoreSCI:vector ETV
attr source tbFailedDueToPropIgnoreSCI
attr title "Number of failed TBs due to propogation, vector"
vector 233 Highway.car[3].lteNic.phy tbFailedDueToInterferenceIgnoreSCI:vector ETV
attr source tbFailedDueToInterferenceIgnoreSCI
attr title "Number of failed TBs due to interference, vector"
vector 234 Highway.car[3].lteNic.phy tbDecodedIgnoreSCI:vector ETV
attr source tbDecodedIgnoreSCI
attr title "Number of failed TBs due to interference, vector"
vector 235 Highway.car[3].lteNic.mac receivedPacketFromLowerLayer:vector(packetBytes) ETV
attr interpolationmode none
attr source receivedPacketFromLowerLayer
vector 236 Highway.car[4].lteNic.phy txRxDistanceSCI:vector ETV
attr source txRxDistanceSCI
attr title "Distance between transmitter and receiver, vector"
vector 237 Highway.car[4].lteNic.phy senderID:vector ETV
attr source senderID
attr title "ID of node who sent message, vector"
vector 238 Highway.car[4].lteNic.phy sciReceived:vector ETV
attr source sciReceived
attr title "Number of received sci, vector"
vector 239 Highway.car[4].lteNic.phy sciUnsensed:vector ETV
attr source sciUnsensed
attr title "Number of failed SCIs due to RSRP below threshold, vector"
vector 240 Highway.car[4].lteNic.phy sciDecoded:vector ETV
attr source sciDecoded
attr title "Number of sci successfully decoded, vector"
vector 241 Highway.car[4].lteNic.phy sciFailedDueToProp:vector ETV
attr source sciFailedDueToProp
attr title "Number of failed SCIs due to propogation, vector"
vector 242 Highway.car[4].lteNic.phy sciFailedDueToInterference:vector ETV
attr source sciFailedDueToInterference
attr title "Number of failed SCIs due to interference, vector"
vector 243 Highway.car[4].lteNic.phy sciFailedHalfDuplex:vector ETV
attr source sciFailedHalfDuplex
attr title "Number of failed SCIs due to Half Duplex, vector"
vector 244 Highway.car[4].lteNic.phy subchannelReceived:vector ETV
attr source subchannelReceived
attr title "Initial Subchannel on which packet is received, vector"
vector 245 Highway.car[4].lteNic.phy subchannelsUsed:vector ETV
attr source subchannelsUsed
attr title "Number of Subchannels used for the received packet, vector"
vector 246 Highway.car[4].lteNic.phy txRxDistanceTB:vector ETV
attr source txRxDistanceTB
attr title "Distance between transmitter and receiver, vector"
vector 247 Highway.car[4].lteNic.phy tbReceived:vector ETV
attr source tbReceived
attr title "Number of tb received, vector"
vector 248 Highway.car[4].lteNic.phy tbDecoded:vector ETV
attr source tbDecoded
attr title "Number of tb Decoded, vector"
vector 249 Highway.car[4].lteNic.phy tbFailedDueToNoSCI:vector ETV
attr source tbFailedDueToNoSCI
attr title "Number of tb not decoded due to no SCI, vector"
vector 250 Highway.car[4].lteNic.phy tbFailedDueToProp:vector ETV
attr source tbFailedDueToProp
attr title "Number of failed TBs due to propogation, vector"
vector 251 Highway.car[4].lteNic.phy tbFailedDueToInterference:vector ETV
attr source tbFailedDueToInterference
attr title "Number of failed TBs due to interference, vector"
vector 252 Highway.car[4].lteNic.phy tbFailedButSCIReceived:vector ETV
attr source tbFailedButSCIReceived
attr title "Number of failed TBs with a decoded SCI, vector"
vector 253 Highway.car[4].lteNic.phy tbFailedHalfDuplex:vector ETV
attr source tbFailedHalfDuplex
attr title "Number of failed TBs due to Half Duplex, vector"
vector 254 Highway.car[4].lteNic.phy periodic:vector ETV
attr source periodic
attr title "Identifies traffic as periodic or aperiodic, vector"
vector 255 Highway.car[4].lteNic.phy tbFailedDueToPropIgnoreSCI:vector ETV
attr source tbFailedDueToPropIgnoreSCI
attr title "Number of failed TBs due to propogation, vector"
vector 256 Highway.car[4].lteNic.phy tbFailedDueToInterferenceIgnoreSCI:vector ETV
attr source tbFailedDueToInterferenceIgnoreSCI
attr title "Number of failed TBs due to interference, vector"
vector 257 Highway.car[4].lteNic.phy tbDecodedIgnoreSCI:vector ETV
attr source tbDecodedIgnoreSCI
attr title "Number of failed TBs due to interference, vector"
vector 258 Highway.car[4].lteNic.mac receivedPacketFromLowerLayer:vector(packetBytes) ETV
attr interpolationmode none
attr source receivedPacketFromLowerLayer
vector 259 Highway.car[5].lteNic.phy txRxDistanceSCI:vector ETV
attr source txRxDistanceSCI
attr title "Distance between transmitter and receiver, vector"
vector 260 Highway.car[5].lteNic.phy senderID:vector ETV
attr source senderID
attr title "ID of node who sent message, vector"
vector 261 Highway.car[5].lteNic.phy sciReceived:vector ETV
attr source sciReceived
attr title "Number of received sci, vector"
vector 262 Highway.car[5].lteNic.phy sciUnsensed:vector ETV
attr source sciUnsensed
attr title "Number of failed SCIs due to RSRP below threshold, vector"
vector 263 Highway.car[5].lteNic.phy sciDecoded:vector ETV
attr source sciDecoded
attr title "Number of sci successfully decoded, vector"
vector 264 Highway.car[5].lteNic.phy sciFailedDueToProp:vector ETV
attr source sciFailedDueToProp
attr title "Number of failed SCIs due to propogation, vector"
vector 265 Highway.car[5].lteNic.phy sciFailedDueToInterference:vector ETV
attr source sciFailedDueToInterference
attr title "Number of failed SCIs due to interference, vector"
vector 266 Highway.car[5].lteNic.phy sciFailedHalfDuplex:vector ETV
attr source sciFailedHalfDuplex
attr title "Number of failed SCIs due to Half Duplex, vector"
vector 267 Highway.car[5].lteNic.phy subchannelReceived:vector ETV
attr source subchannelReceived
attr title "Initial Subchannel on which packet is received, vector"
vector 268 Highway.car[5].lteNic.phy subchannelsUsed:vector ETV
attr source subchannelsUsed
attr title "Number of Subchannels used for the received packet, vector"
vector 269 Highway.car[5].lteNic.phy txRxDistanceTB:vector ETV
attr source txRxDistanceTB
attr title "Distance between transmitter and receiver, vector"
vector 270 Highway.car[5].lteNic.phy tbReceived:vector ETV
attr source tbReceived
attr title "Number of tb received, vector"
vector 271 Highway.car[5].lteNic.phy tbDecoded:vector ETV
attr source tbDecoded
attr title "Number of tb Decoded, vector"
vector 272 Highway.car[5].lteNic.phy tbFailedDueToNoSCI:vector ETV
attr source tbFailedDueToNoSCI
attr title "Number of tb not decoded due to no SCI, vector"
vector 273 Highway.car[5].lteNic.phy tbFailedDueToProp:vector ETV
attr source tbFailedDueToProp
attr title "Number of failed TBs due to propogation, vector"
vector 274 Highway.car[5].lteNic.phy tbFailedDueToInterference:vector ETV
attr source tbFailedDueToInterference
attr title "Number of failed TBs due to interference, vector"
vector 275 Highway.car[5].lteNic.phy tbFailedButSCIReceived:vector ETV
attr source tbFailedButSCIReceived
attr title "Number of failed TBs with a decoded SCI, vector"
vector 276 Highway.car[5].lteNic.phy tbFailedHalfDuplex:vector ETV
attr source tbFailedHalfDuplex
attr title "Number of failed TBs due to Half Duplex, vector"
vector 277 Highway.car[5].lteNic.phy periodic:vector ETV
attr source periodic
attr title "Identifies traffic as periodic or aperiodic, vector"
vector 278 Highway.car[5].lteNic.phy tbFailedDueToPropIgnoreSCI:vector ETV
attr source tbFailedDueToPropIgnoreSCI
attr title "Number of failed TBs due to propogation, vector"
vector 279 Highway.car[5].lteNic.phy tbFailedDueToInterferenceIgnoreSCI:vector ETV
attr source tbFailedDueToInterferenceIgnoreSCI
attr title "Number of failed TBs due to interference, vector"
vector 280 Highway.car[5].lteNic.phy tbDecodedIgnoreSCI:vector ETV
attr source tbDecodedIgnoreSCI
attr title "Number of failed TBs due to interference, vector"
vector 281 Highway.car[5].lteNic.mac receivedPacketFromLowerLayer:vector(packetBytes) ETV
attr interpolationmode none
attr source receivedPacketFromLowerLayer
vector 282 Highway.car[6].lteNic.phy txRxDistanceSCI:vector ETV
attr source txRxDistanceSCI
attr title "Distance between transmitter and receiver, vector"
vector 283 Highway.car[6].lteNic.phy senderID:vector ETV
attr source senderID
attr title "ID of node who sent message, vector"
vector 284 Highway.car[6].lteNic.phy sciReceived:vector ETV
attr source sciReceived
attr title "Number of received sci, vector"
vector 285 Highway.car[6].lteNic.phy sciUnsensed:vector ETV
attr source sciUnsensed
attr title "Number of failed SCIs due to RSRP below threshold, vector"
vector 286 Highway.car[6].lteNic.phy sciDecoded:vector ETV
attr source sciDecoded
attr title "Number of sci successfully decoded, vector"
vector 287 Highway.car[6].lteNic.phy sciFailedDueToProp:vector ETV
attr source sciFailedDueToProp
attr title "Number of failed SCIs due to propogation, vector"
vector 288 Highway.car[6].lteNic.phy sciFailedDueToInterference:vector ETV
attr source sciFailedDueToInterference
attr title "Number of failed SCIs due to interference, vector"
vector 289 Highway.car[6].lteNic.phy sciFailedHalfDuplex:vector ETV
attr source sciFailedHalfDuplex
attr title "Number of failed SCIs due to Half Duplex, vector"
vector 290 Highway.car[6].lteNic.phy subchannelReceived:vector ETV
attr source subchannelReceived
attr title "Initial Subchannel on which packet is received, vector"
vector 291 Highway.car[6].lteNic.phy subchannelsUsed:vector ETV
attr source subchannelsUsed
attr title "Number of Subchannels used for the received packet, vector"
vector 292 Highway.car[6].lteNic.phy txRxDistanceTB:vector ETV
attr source txRxDistanceTB
attr title "Distance between transmitter and receiver, vector"
vector 293 Highway.car[6].lteNic.phy tbReceived:vector ETV
attr source tbReceived
attr title "Number of tb received, vector"
vector 294 Highway.car[6].lteNic.phy tbDecoded:vector ETV
attr source tbDecoded
attr title "Number of tb Decoded, vector"
vector 295 Highway.car[6].lteNic.phy tbFailedDueToNoSCI:vector ETV
attr source tbFailedDueToNoSCI
attr title "Number of tb not decoded due to no SCI, vector"
vector 296 Highway.car[6].lteNic.phy tbFailedDueToProp:vector ETV
attr source tbFailedDueToProp
attr title "Number of failed TBs due to propogation, vector"
vector 297 Highway.car[6].lteNic.phy tbFailedDueToInterference:vector ETV
attr source tbFailedDueToInterference
attr title "Number of failed TBs due to interference, vector"
vector 298 Highway.car[6].lteNic.phy tbFailedButSCIReceived:vector ETV
attr source tbFailedButSCIReceived
attr title "Number of failed TBs with a decoded SCI, vector"
vector 299 Highway.car[6].lteNic.phy tbFailedHalfDuplex:vector ETV
attr source tbFailedHalfDuplex
attr title "Number of failed TBs due to Half Duplex, vector"
vector 300 Highway.car[6].lteNic.phy periodic:vector ETV
attr source periodic
attr title "Identifies traffic as periodic or aperiodic, vector"
vector 301 Highway.car[6].lteNic.phy tbFailedDueToPropIgnoreSCI:vector ETV
attr source tbFailedDueToPropIgnoreSCI
attr title "Number of failed TBs due to propogation, vector"
vector 302 Highway.car[6].lteNic.phy tbFailedDueToInterferenceIgnoreSCI:vector ETV
attr source tbFailedDueToInterferenceIgnoreSCI
attr title "Number of failed TBs due to interference, vector"
vector 303 Highway.car[6].lteNic.phy tbDecodedIgnoreSCI:vector ETV
attr source tbDecodedIgnoreSCI
attr title "Number of failed TBs due to interference, vector"
vector 304 Highway.car[6].lteNic.mac receivedPacketFromLowerLayer:vector(packetBytes) ETV
attr interpolationmode none
attr source receivedPacketFromLowerLayer
vector 305 Highway.car[7].lteNic.phy txRxDistanceSCI:vector ETV
attr source txRxDistanceSCI
attr title "Distance between transmitter and receiver, vector"
vector 306 Highway.car[7].lteNic.phy senderID:vector ETV
attr source senderID
attr title "ID of node who sent message, vector"
vector 307 Highway.car[7].lteNic.phy sciReceived:vector ETV
attr source sciReceived
attr title "Number of received sci, vector"
vector 308 Highway.car[7].lteNic.phy sciUnsensed:vector ETV
attr source sciUnsensed
attr title "Number of failed SCIs due to RSRP below threshold, vector"
vector 309 Highway.car[7].lteNic.phy sciDecoded:vector ETV
attr source sciDecoded
attr title "Number of sci successfully decoded, vector"
vector 310 Highway.car[7].lteNic.phy sciFailedDueToProp:vector ETV
attr source sciFailedDueToProp
attr title "Number of failed SCIs due to propogation, vector"
vector 311 Highway.car[7].lteNic.phy sciFailedDueToInterference:vector ETV
attr source sciFailedDueToInterference
attr title "Number of failed SCIs due to interference, vector"
vector 312 Highway.car[7].lteNic.phy sciFailedHalfDuplex:vector ETV
attr source sciFailedHalfDuplex
attr title "Number of failed SCIs due to Half Duplex, vector"
vector 313 Highway.car[7].lteNic.phy subchannelReceived:vector ETV
attr source subchannelReceived
attr title "Initial Subchannel on which packet is received, vector"
vector 314 Highway.car[7].lteNic.phy subchannelsUsed:vector ETV
attr source subchannelsUsed
attr title "Number of Subchannels used for the received packet, vector"
vector 315 Highway.car[7].lteNic.phy txRxDistanceTB:vector ETV
attr source txRxDistanceTB
attr title "Distance between transmitter and receiver, vector"
vector 316 Highway.car[7].lteNic.phy tbReceived:vector ETV
attr source tbReceived
attr title "Number of tb received, vector"
vector 317 Highway.car[7].lteNic.phy tbDecoded:vector ETV
attr source tbDecoded
attr title "Number of tb Decoded, vector"
vector 318 Highway.car[7].lteNic.phy tbFailedDueToNoSCI:vector ETV
attr source tbFailedDueToNoSCI
attr title "Number of tb not decoded due to no SCI, vector"
vector 319 Highway.car[7].lteNic.phy tbFailedDueToProp:vector ETV
attr source tbFailedDueToProp
attr title "Number of failed TBs due to propogation, vector"
vector 320 Highway.car[7].lteNic.phy tbFailedDueToInterference:vector ETV
attr source tbFailedDueToInterference
attr title "Number of failed TBs due to interference, vector"
vector 321 Highway.car[7].lteNic.phy tbFailedButSCIReceived:vector ETV
attr source tbFailedButSCIReceived
attr title "Number of failed TBs with a decoded SCI, vector"
vector 322 Highway.car[7].lteNic.phy tbFailedHalfDuplex:vector ETV
attr source tbFailedHalfDuplex
attr title "Number of failed TBs due to Half Duplex, vector"
vector 323 Highway.car[7].lteNic.phy periodic:vector ETV
attr source periodic
attr title "Identifies traffic as periodic or aperiodic, vector"
vector 324 Highway.car[7].lteNic.phy tbFailedDueToPropIgnoreSCI:vector ETV
attr source tbFailedDueToPropIgnoreSCI
attr title "Number of failed TBs due to propogation, vector"
vector 325 Highway.car[7].lteNic.phy tbFailedDueToInterferenceIgnoreSCI:vector ETV
attr source tbFailedDueToInterferenceIgnoreSCI
attr title "Number of failed TBs due to interference, vector"
vector 326 Highway.car[7].lteNic.phy tbDecodedIgnoreSCI:vector ETV
attr source tbDecodedIgnoreSCI
attr title "Number of failed TBs due to interference, vector"
vector 327 Highway.car[7].lteNic.mac receivedPacketFromLowerLayer:vector(packetBytes) ETV
attr interpolationmode none
attr source receivedPacketFromLowerLayer
vector 328 Highway.car[8].lteNic.phy txRxDistanceSCI:vector ETV
attr source txRxDistanceSCI
attr title "Distance between transmitter and receiver, vector"
vector 329 Highway.car[8].lteNic.phy senderID:vector ETV
attr source senderID
attr title "ID of node who sent message, vector"
vector 330 Highway.car[8].lteNic.phy sciReceived:vector ETV
attr source sciReceived
attr title "Number of received sci, vector"
vector 331 Highway.car[8].lteNic.phy sciUnsensed:vector ETV
attr source sciUnsensed
attr title "Number of failed SCIs due to RSRP below threshold, vector"
vector 332 Highway.car[8].lteNic.phy sciDecoded:vector ETV
attr source sciDecoded
attr title "Number of sci successfully decoded, vector"
vector 333 Highway.car[8].lteNic.phy sciFailedDueToProp:vector ETV
attr source sciFailedDueToProp
attr title "Number of failed SCIs due to propogation, vector"
vector 334 Highway.car[8].lteNic.phy sciFailedDueToInterference:vector ETV
attr source sciFailedDueToInterference
attr title "Number of failed SCIs due to interference, vector"
vector 335 Highway.car[8].lteNic.phy sciFailedHalfDuplex:vector ETV
attr source sciFailedHalfDuplex
attr title "Number of failed SCIs due to Half Duplex, vector"
vector 336 Highway.car[8].lteNic.phy subchannelReceived:vector ETV
attr source subchannelReceived
attr title "Initial Subchannel on which packet is received, vector"
vector 337 Highway.car[8].lteNic.phy subchannelsUsed:vector ETV
attr source subchannelsUsed
attr title "Number of Subchannels used for the received packet, vector"
vector 338 Highway.car[8].lteNic.phy txRxDistanceTB:vector ETV
attr source txRxDistanceTB
attr title "Distance between transmitter and receiver, vector"
vector 339 Highway.car[8].lteNic.phy tbReceived:vector ETV
attr source tbReceived
attr title "Number of tb received, vector"
vector 340 Highway.car[8].lteNic.phy tbDecoded:vector ETV
attr source tbDecoded
attr title "Number of tb Decoded, vector"
vector 341 Highway.car[8].lteNic.phy tbFailedDueToNoSCI:vector ETV
attr source tbFailedDueToNoSCI
attr title "Number of tb not decoded due to no SCI, vector"
vector 342 Highway.car[8].lteNic.phy tbFailedDueToProp:vector ETV
attr source tbFailedDueToProp
attr title "Number of failed TBs due to propogation, vector"
vector 343 Highway.car[8].lteNic.phy tbFailedDueToInterference:vector ETV
attr source tbFailedDueToInterference
attr title "Number of failed TBs due to interference, vector"
vector 344 Highway.car[8].lteNic.phy tbFailedButSCIReceived:vector ETV
attr source tbFailedButSCIReceived
attr title "Number of failed TBs with a decoded SCI, vector"
vector 345 Highway.car[8].lteNic.phy tbFailedHalfDuplex:vector ETV
attr source tbFailedHalfDuplex
attr title "Number of failed TBs due to Half Duplex, vector"
vector 346 Highway.car[8].lteNic.phy periodic:vector ETV
attr source periodic
attr title "Identifies traffic as periodic or aperiodic, vector"
vector 347 Highway.car[8].lteNic.phy tbFailedDueToPropIgnoreSCI:vector ETV
attr source tbFailedDueToPropIgnoreSCI
attr title "Number of failed TBs due to propogation, vector"
vector 348 Highway.car[8].lteNic.phy tbFailedDueToInterferenceIgnoreSCI:vector ETV
attr source tbFailedDueToInterferenceIgnoreSCI
attr title "Number of failed TBs due to interference, vector"
vector 349 Highway.car[8].lteNic.phy tbDecodedIgnoreSCI:vector ETV
attr source tbDecodedIgnoreSCI
attr title "Number of failed TBs due to interference, vector"
vector 350 Highway.car[8].lteNic.mac receivedPacketFromLowerLayer:vector(packetBytes) ETV
attr interpolationmode none
attr source receivedPacketFromLowerLayer
vector 351 Highway.car[9].lteNic.phy txRxDistanceSCI:vector ETV
attr source txRxDistanceSCI
attr title "Distance between transmitter and receiver, vector"
vector 352 Highway.car[9].lteNic.phy senderID:vector ETV
attr source senderID
attr title "ID of node who sent message, vector"
vector 353 Highway.car[9].lteNic.phy sciReceived:vector ETV
attr source sciReceived
attr title "Number of received sci, vector"
vector 354 Highway.car[9].lteNic.phy sciUnsensed:vector ETV
attr source sciUnsensed
attr title "Number of failed SCIs due to RSRP below threshold, vector"
vector 355 Highway.car[9].lteNic.phy sciDecoded:vector ETV
attr source sciDecoded
attr title "Number of sci successfully decoded, vector"
vector 356 Highway.car[9].lteNic.phy sciFailedDueToProp:vector ETV
attr source sciFailedDueToProp
attr title "Number of failed SCIs due to propogation, vector"
vector 357 Highway.car[9].lteNic.phy sciFailedDueToInterference:vector ETV
attr source sciFailedDueToInterference
attr title "Number of failed SCIs due to interference, vector"
vector 358 Highway.car[9].lteNic.phy sciFailedHalfDuplex:vector ETV
attr source sciFailedHalfDuplex
attr title "Number of failed SCIs due to Half Duplex, vector"
vector 359 Highway.car[9].lteNic.phy subchannelReceived:vector ETV
attr source subchannelReceived
attr title "Initial Subchannel on which packet is received, vector"
vector 360 Highway.car[9].lteNic.phy subchannelsUsed:vector ETV
attr source subchannelsUsed
attr title "Number of Subchannels used for the received packet, vector"
vector 361 Highway.car[9].lteNic.phy txRxDistanceTB:vector ETV
attr source txRxDistanceTB
attr title "Distance between transmitter and receiver, vector"
vector 362 Highway.car[9].lteNic.phy tbReceived:vector ETV
attr source tbReceived
attr title "Number of tb received, vector"
vector 363 Highway.car[9].lteNic.phy tbDecoded:vector ETV
attr source tbDecoded
attr title "Number of tb Decoded, vector"
vector 364 Highway.car[9].lteNic.phy tbFailedDueToNoSCI:vector ETV
attr source tbFailedDueToNoSCI
attr title "Number of tb not decoded due to no SCI, vector"
vector 365 Highway.car[9].lteNic.phy tbFailedDueToProp:vector ETV
attr source tbFailedDueToProp
attr title "Number of failed TBs due to propogation, vector"
vector 366 Highway.car[9].lteNic.phy tbFailedDueToInterference:vector ETV
attr source tbFailedDueToInterference
attr title "Number of failed TBs due to interference, vector"
vector 367 Highway.car[9].lteNic.phy tbFailedButSCIReceived:vector ETV
attr source tbFailedButSCIReceived
attr title "Number of failed TBs with a decoded SCI, vector"
vector 368 Highway.car[9].lteNic.phy tbFailedHalfDuplex:vector ETV
attr source tbFailedHalfDuplex
attr title "Number of failed TBs due to Half Duplex, vector"
vector 369 Highway.car[9].lteNic.phy periodic:vector ETV
attr source periodic
attr title "Identifies traffic as periodic or aperiodic, vector"
vector 370 Highway.car[9].lteNic.phy tbFailedDueToPropIgnoreSCI:vector ETV
attr source tbFailedDueToPropIgnoreSCI
attr title "Number of failed TBs due to propogation, vector"
vector 371 Highway.car[9].lteNic.phy tbFailedDueToInterferenceIgnoreSCI:vector ETV
attr source tbFailedDueToInterferenceIgnoreSCI
attr title "Number of failed TBs due to interference, vector"
vector 372 Highway.car[9].lteNic.phy tbDecodedIgnoreSCI:vector ETV
attr source tbDecodedIgnoreSCI
attr title "Number of failed TBs due to interference, vector"
vector 373 Highway.car[9].lteNic.mac receivedPacketFromLowerLayer:vector(packetBytes) ETV
attr interpolationmode none
attr source receivedPacketFromLowerLayer
vector 374 Highway.car[10].lteNic.phy txRxDistanceSCI:vector ETV
attr source txRxDistanceSCI
attr title "Distance between transmitter and receiver, vector"
vector 375 Highway.car[10].lteNic.phy senderID:vector ETV
attr source senderID
attr title "ID of node who sent message, vector"
vector 376 Highway.car[10].lteNic.phy sciReceived:vector ETV
attr source sciReceived
attr title "Number of received sci, vector"
vector 377 Highway.car[10].lteNic.phy sciUnsensed:vector ETV
attr source sciUnsensed
attr title "Number of failed SCIs due to RSRP below threshold, vector"
vector 378 Highway.car[10].lteNic.phy sciDecoded:vector ETV
attr source sciDecoded
attr title "Number of sci successfully decoded, vector"
vector 379 Highway.car[10].lteNic.phy sciFailedDueToProp:vector ETV
attr source sciFailedDueToProp
attr title "Number of failed SCIs due to propogation, vector"
vector 380 Highway.car[10].lteNic.phy sciFailedDueToInterference:vector ETV
attr source sciFailedDueToInterference
attr title "Number of failed SCIs due to interference, vector"
vector 381 Highway.car[10].lteNic.phy sciFailedHalfDuplex:vector ETV
attr source sciFailedHalfDuplex
attr title "Number of failed SCIs due to Half Duplex, vector"
vector 382 Highway.car[10].lteNic.phy subchannelReceived:vector ETV
attr source subchannelReceived
attr title "Initial Subchannel on which packet is received, vector"
vector 383 Highway.car[10].lteNic.phy subchannelsUsed:vector ETV
attr source subchannelsUsed
attr title "Number of Subchannels used for the received packet, vector"
vector 384 Highway.car[10].lteNic.phy txRxDistanceTB:vector ETV
attr source txRxDistanceTB
attr title "Distance between transmitter and receiver, vector"
vector 385 Highway.car[10].lteNic.phy tbReceived:vector ETV
attr source tbReceived
attr title "Number of tb received, vector"
vector 386 Highway.car[10].lteNic.phy tbDecoded:vector ETV
attr source tbDecoded
attr title "Number of tb Decoded, vector"
vector 387 Highway.car[10].lteNic.phy tbFailedDueToNoSCI:vector ETV
attr source tbFailedDueToNoSCI
attr title "Number of tb not decoded due to no SCI, vector"
vector 388 Highway.car[10].lteNic.phy tbFailedDueToProp:vector ETV
attr source tbFailedDueToProp
attr title "Number of failed TBs due to propogation, vector"
vector 389 Highway.car[10].lteNic.phy tbFailedDueToInterference:vector ETV
attr source tbFailedDueToInterference
attr title "Number of failed TBs due to interference, vector"
vector 390 Highway.car[10].lteNic.phy tbFailedButSCIReceived:vector ETV
attr source tbFailedButSCIReceived
attr title "Number of failed TBs with a decoded SCI, vector"
vector 391 Highway.car[10].lteNic.phy tbFailedHalfDuplex:vector ETV
attr source tbFailedHalfDuplex
attr title "Number of failed TBs due to Half Duplex, vector"
vector 392 Highway.car[10].lteNic.phy periodic:vector ETV
attr source periodic
attr title "Identifies traffic as periodic or aperiodic, vector"
vector 393 Highway.car[10].lteNic.phy tbFailedDueToPropIgnoreSCI:vector ETV
attr source tbFailedDueToPropIgnoreSCI
attr title "Number of failed TBs due to propogation, vector"
vector 394 Highway.car[10].lteNic.phy tbFailedDueToInterferenceIgnoreSCI:vector ETV
attr source tbFailedDueToInterferenceIgnoreSCI
attr title "Number of failed TBs due to interference, vector"
vector 395 Highway.car[10].lteNic.phy tbDecodedIgnoreSCI:vector ETV
attr source tbDecodedIgnoreSCI
attr title "Number of failed TBs due to interference, vector"
vector 396 Highway.car[10].lteNic.mac receivedPacketFromLowerLayer:vector(packetBytes) ETV
attr interpolationmode none
attr source receivedPacketFromLowerLayer
vector 397 Highway.car[11].lteNic.phy txRxDistanceSCI:vector ETV
attr source txRxDistanceSCI
attr title "Distance between transmitter and receiver, vector"
vector 398 Highway.car[11].lteNic.phy senderID:vector ETV
attr source senderID
attr title "ID of node who sent message, vector"
vector 399 Highway.car[11].lteNic.phy sciReceived:vector ETV
attr source sciReceived
attr title "Number of received sci, vector"
vector 400 Highway.car[11].lteNic.phy sciUnsensed:vector ETV
attr source sciUnsensed
attr title "Number of failed SCIs due to RSRP below threshold, vector"
vector 401 Highway.car[11].lteNic.phy sciDecoded:vector ETV
attr source sciDecoded
attr title "Number of sci successfully decoded, vector"
vector 402 Highway.car[11].lteNic.phy sciFailedDueToProp:vector ETV
attr source sciFailedDueToProp
attr title "Number of failed SCIs due to propogation, vector"
vector 403 Highway.car[11].lteNic.phy sciFailedDueToInterference:vector ETV
attr source sciFailedDueToInterference
attr title "Number of failed SCIs due to interference, vector"
vector 404 Highway.car[11].lteNic.phy sciFailedHalfDuplex:vector ETV
attr source sciFailedHalfDuplex
attr title "Number of failed SCIs due to Half Duplex, vector"
vector 405 Highway.car[11].lteNic.phy subchannelReceived:vector ETV
attr source subchannelReceived
attr title "Initial Subchannel on which packet is received, vector"
vector 406 Highway.car[11].lteNic.phy subchannelsUsed:vector ETV
attr source subchannelsUsed
attr title "Number of Subchannels used for the received packet, vector"
vector 407 Highway.car[11].lteNic.phy txRxDistanceTB:vector ETV
attr source txRxDistanceTB
attr title "Distance between transmitter and receiver, vector"
vector 408 Highway.car[11].lteNic.phy tbReceived:vector ETV
attr source tbReceived
attr title "Number of tb received, vector"
vector 409 Highway.car[11].lteNic.phy tbDecoded:vector ETV
attr source tbDecoded
attr title "Number of tb Decoded, vector"
vector 410 Highway.car[11].lteNic.phy tbFailedDueToNoSCI:vector ETV
attr source tbFailedDueToNoSCI
attr title "Number of tb not decoded due to no SCI, vector"
vector 411 Highway.car[11].lteNic.phy tbFailedDueToProp:vector ETV
attr source tbFailedDueToProp
attr title "Number of failed TBs due to propogation, vector"
vector 412 Highway.car[11].lteNic.phy tbFailedDueToInterference:vector ETV
attr source tbFailedDueToInterference
attr title "Number of failed TBs due to interference, vector"
vector 413 Highway.car[11].lteNic.phy tbFailedButSCIReceived:vector ETV
attr source tbFailedButSCIReceived
attr title "Number of failed TBs with a decoded SCI, vector"
vector 414 Highway.car[11].lteNic.phy tbFailedHalfDuplex:vector ETV
attr source tbFailedHalfDuplex
attr title "Number of failed TBs due to Half Duplex, vector"
vector 415 Highway.car[11].lteNic.phy periodic:vector ETV
attr source periodic
attr title "Identifies traffic as periodic or aperiodic, vector"
vector 416 Highway.car[11].lteNic.phy tbFailedDueToPropIgnoreSCI:vector ETV
attr source tbFailedDueToPropIgnoreSCI
attr title "Number of failed TBs due to propogation, vector"
vector 417 Highway.car[11].lteNic.phy tbFailedDueToInterferenceIgnoreSCI:vector ETV
attr source tbFailedDueToInterferenceIgnoreSCI
attr title "Number of failed TBs due to interference, vector"
vector 418 Highway.car[11].lteNic.phy tbDecodedIgnoreSCI:vector ETV
attr source tbDecodedIgnoreSCI
attr title "Number of failed TBs due to interference, vector"
vector 419 Highway.car[11].lteNic.mac receivedPacketFromLowerLayer:vector(packetBytes) ETV
attr interpolationmode none
attr source receivedPacketFromLowerLayer
vector 420 Highway.car[12].lteNic.phy txRxDistanceSCI:vector ETV
attr source txRxDistanceSCI
attr title "Distance between transmitter and receiver, vector"
vector 421 Highway.car[12].lteNic.phy senderID:vector ETV
attr source senderID
attr title "ID of node who sent message, vector"
vector 422 Highway.car[12].lteNic.phy sciReceived:vector ETV
attr source sciReceived
attr title "Number of received sci, vector"
vector 423 Highway.car[12].lteNic.phy sciUnsensed:vector ETV
attr source sciUnsensed
attr title "Number of failed SCIs due to RSRP below threshold, vector"
vector 424 Highway.car[12].lteNic.phy sciDecoded:vector ETV
attr source sciDecoded
attr title "Number of sci successfully decoded, vector"
vector 425 Highway.car[12].lteNic.phy sciFailedDueToProp:vector ETV
attr source sciFailedDueToProp
attr title "Number of failed SCIs due to propogation, vector"
vector 426 Highway.car[12].lteNic.phy sciFailedDueToInterference:vector ETV
attr source sciFailedDueToInterference
attr title "Number of failed SCIs due to interference, vector"
vector 427 Highway.car[12].lteNic.phy sciFailedHalfDuplex:vector ETV
attr source sciFailedHalfDuplex
attr title "Number of failed SCIs due to Half Duplex, vector"
vector 428 Highway.car[12].lteNic.phy subchannelReceived:vector ETV
attr source subchannelReceived
attr title "Initial Subchannel on which packet is received, vector"
vector 429 Highway.car[12].lteNic.phy subchannelsUsed:vector ETV
attr source subchannelsUsed
attr title "Number of Subchannels used for the received packet, vector"
vector 430 Highway.car[12].lteNic.phy txRxDistanceTB:vector ETV
attr source txRxDistanceTB
attr title "Distance between transmitter and receiver, vector"
vector 431 Highway.car[12].lteNic.phy tbReceived:vector ETV
attr source tbReceived
attr title "Number of tb received, vector"
vector 432 Highway.car[12].lteNic.phy tbDecoded:vector ETV
attr source tbDecoded
attr title "Number of tb Decoded, vector"
vector 433 Highway.car[12].lteNic.phy tbFailedDueToNoSCI:vector ETV
attr source tbFailedDueToNoSCI
attr title "Number of tb not decoded due to no SCI, vector"
vector 434 Highway.car[12].lteNic.phy tbFailedDueToProp:vector ETV
attr source tbFailedDueToProp
attr title "Number of failed TBs due to propogation, vector"
vector 435 Highway.car[12].lteNic.phy tbFailedDueToInterference:vector ETV
attr source tbFailedDueToInterference
attr title "Number of failed TBs due to interference, vector"
vector 436 Highway.car[12].lteNic.phy tbFailedButSCIReceived:vector ETV
attr source tbFailedButSCIReceived
attr title "Number of failed TBs with a decoded SCI, vector"
vector 437 Highway.car[12].lteNic.phy tbFailedHalfDuplex:vector ETV
attr source tbFailedHalfDuplex
attr title "Number of failed TBs due to Half Duplex, vector"
vector 438 Highway.car[12].lteNic.phy periodic:vector ETV
attr source periodic
attr title "Identifies traffic as periodic or aperiodic, vector"
vector 439 Highway.car[12].lteNic.phy tbFailedDueToPropIgnoreSCI:vector ETV
attr source tbFailedDueToPropIgnoreSCI
attr title "Number of failed TBs due to propogation, vector"
vector 440 Highway.car[12].lteNic.phy tbFailedDueToInterferenceIgnoreSCI:vector ETV
attr source tbFailedDueToInterferenceIgnoreSCI
attr title "Number of failed TBs due to interference, vector"
vector 441 Highway.car[12].lteNic.phy tbDecodedIgnoreSCI:vector ETV
attr source tbDecodedIgnoreSCI
attr title "Number of failed TBs due to interference, vector"
vector 442 Highway.car[12].lteNic.mac receivedPacketFromLowerLayer:vector(packetBytes) ETV
attr interpolationmode none
attr source receivedPacketFromLowerLayer
vector 443 Highway.car[13].lteNic.phy txRxDistanceSCI:vector ETV
attr source txRxDistanceSCI
attr title "Distance between transmitter and receiver, vector"
vector 444 Highway.car[13].lteNic.phy senderID:vector ETV
attr source senderID
attr title "ID of node who sent message, vector"
vector 445 Highway.car[13].lteNic.phy sciReceived:vector ETV
attr source sciReceived
attr title "Number of received sci, vector"
vector 446 Highway.car[13].lteNic.phy sciUnsensed:vector ETV
attr source sciUnsensed
attr title "Number of failed SCIs due to RSRP below threshold, vector"
vector 447 Highway.car[13].lteNic.phy sciDecoded:vector ETV
attr source sciDecoded
attr title "Number of sci successfully decoded, vector"
vector 448 Highway.car[13].lteNic.phy sciFailedDueToProp:vector ETV
attr source sciFailedDueToProp
attr title "Number of failed SCIs due to propogation, vector"
vector 449 Highway.car[13].lteNic.phy sciFailedDueToInterference:vector ETV
attr source sciFailedDueToInterference
attr title "Number of failed SCIs due to interference, vector"
vector 450 Highway.car[13].lteNic.phy sciFailedHalfDuplex:vector ETV
attr source sciFailedHalfDuplex
attr title "Number of failed SCIs due to Half Duplex, vector"
vector 451 Highway.car[13].lteNic.phy subchannelReceived:vector ETV
attr source subchannelReceived
attr title "Initial Subchannel on which packet is received, vector"
vector 452 Highway.car[13].lteNic.phy subchannelsUsed:vector ETV
attr source subchannelsUsed
attr title "Number of Subchannels used for the received packet, vector"
vector 453 Highway.car[13].lteNic.phy txRxDistanceTB:vector ETV
attr source txRxDistanceTB
attr title "Distance between transmitter and receiver, vector"
vector 454 Highway.car[13].lteNic.phy tbReceived:vector ETV
attr source tbReceived
attr title "Number of tb received, vector"
vector 455 Highway.car[13].lteNic.phy tbDecoded:vector ETV
attr source tbDecoded
attr title "Number of tb Decoded, vector"
vector 456 Highway.car[13].lteNic.phy tbFailedDueToNoSCI:vector ETV
attr source tbFailedDueToNoSCI
attr title "Number of tb not decoded due to no SCI, vector"
vector 457 Highway.car[13].lteNic.phy tbFailedDueToProp:vector ETV
attr source tbFailedDueToProp
attr title "Number of failed TBs due to propogation, vector"
vector 458 Highway.car[13].lteNic.phy tbFailedDueToInterference:vector ETV
attr source tbFailedDueToInterference
attr title "Number of failed TBs due to interference, vector"
vector 459 Highway.car[13].lteNic.phy tbFailedButSCIReceived:vector ETV
attr source tbFailedButSCIReceived
attr title "Number of failed TBs with a decoded SCI, vector"
vector 460 Highway.car[13].lteNic.phy tbFailedHalfDuplex:vector ETV
attr source tbFailedHalfDuplex
attr title "Number of failed TBs due to Half Duplex, vector"
vector 461 Highway.car[13].lteNic.phy periodic:vector ETV
attr source periodic
attr title "Identifies traffic as periodic or aperiodic, vector"
vector 462 Highway.car[13].lteNic.phy tbFailedDueToPropIgnoreSCI:vector ETV
attr source tbFailedDueToPropIgnoreSCI
attr title "Number of failed TBs due to propogation, vector"
vector 463 Highway.car[13].lteNic.phy tbFailedDueToInterferenceIgnoreSCI:vector ETV
attr source tbFailedDueToInterferenceIgnoreSCI
attr title "Number of failed TBs due to interference, vector"
vector 464 Highway.car[13].lteNic.phy tbDecodedIgnoreSCI:vector ETV
attr source tbDecodedIgnoreSCI
attr title "Number of failed TBs due to interference, vector"
vector 465 Highway.car[14].lteNic.phy txRxDistanceSCI:vector ETV
attr source txRxDistanceSCI
attr title "Distance between transmitter and receiver, vector"
vector 466 Highway.car[14].lteNic.phy senderID:vector ETV
attr source senderID
attr title "ID of node who sent message, vector"
vector 467 Highway.car[14].lteNic.phy sciReceived:vector ETV
attr source sciReceived
attr title "Number of received sci, vector"
vector 468 Highway.car[14].lteNic.phy sciUnsensed:vector ETV
attr source sciUnsensed
attr title "Number of failed SCIs due to RSRP below threshold, vector"
vector 469 Highway.car[14].lteNic.phy sciDecoded:vector ETV
attr source sciDecoded
attr title "Number of sci successfully decoded, vector"
vector 470 Highway.car[14].lteNic.phy sciFailedDueToProp:vector ETV
attr source sciFailedDueToProp
attr title "Number of failed SCIs due to propogation, vector"
vector 471 Highway.car[14].lteNic.phy sciFailedDueToInterference:vector ETV
attr source sciFailedDueToInterference
attr title "Number of failed SCIs due to interference, vector"
vector 472 Highway.car[14].lteNic.phy sciFailedHalfDuplex:vector ETV
attr source sciFailedHalfDuplex
attr title "Number of failed SCIs due to Half Duplex, vector"
vector 473 Highway.car[14].lteNic.phy subchannelReceived:vector ETV
attr source subchannelReceived
attr title "Initial Subchannel on which packet is received, vector"
vector 474 Highway.car[14].lteNic.phy subchannelsUsed:vector ETV
attr source subchannelsUsed
attr title "Number of Subchannels used for the received packet, vector"
vector 475 Highway.car[14].lteNic.phy txRxDistanceTB:vector ETV
attr source txRxDistanceTB
attr title "Distance between transmitter and receiver, vector"
vector 476 Highway.car[14].lteNic.phy tbReceived:vector ETV
attr source tbReceived
attr title "Number of tb received, vector"
vector 477 Highway.car[14].lteNic.phy tbDecoded:vector ETV
attr source tbDecoded
attr title "Number of tb Decoded, vector"
vector 478 Highway.car[14].lteNic.phy tbFailedDueToNoSCI:vector ETV
attr source tbFailedDueToNoSCI
attr title "Number of tb not decoded due to no SCI, vector"
vector 479 Highway.car[14].lteNic.phy tbFailedDueToProp:vector ETV
attr source tbFailedDueToProp
attr title "Number of failed TBs due to propogation, vector"
vector 480 Highway.car[14].lteNic.phy tbFailedDueToInterference:vector ETV
attr source tbFailedDueToInterference
attr title "Number of failed TBs due to interference, vector"
vector 481 Highway.car[14].lteNic.phy tbFailedButSCIReceived:vector ETV
attr source tbFailedButSCIReceived
attr title "Number of failed TBs with a decoded SCI, vector"
vector 482 Highway.car[14].lteNic.phy tbFailedHalfDuplex:vector ETV
attr source tbFailedHalfDuplex
attr title "Number of failed TBs due to Half Duplex, vector"
vector 483 Highway.car[14].lteNic.phy periodic:vector ETV
attr source periodic
attr title "Identifies traffic as periodic or aperiodic, vector"
vector 484 Highway.car[14].lteNic.phy tbFailedDueToPropIgnoreSCI:vector ETV
attr source tbFailedDueToPropIgnoreSCI
attr title "Number of failed TBs due to propogation, vector"
vector 485 Highway.car[14].lteNic.phy tbFailedDueToInterferenceIgnoreSCI:vector ETV
attr source tbFailedDueToInterferenceIgnoreSCI
attr title "Number of failed TBs due to interference, vector"
vector 486 Highway.car[14].lteNic.phy tbDecodedIgnoreSCI:vector ETV
attr source tbDecodedIgnoreSCI
attr title "Number of failed TBs due to interference, vector"
vector 487 Highway.car[14].lteNic.mac receivedPacketFromLowerLayer:vector(packetBytes) ETV
attr interpolationmode none
attr source receivedPacketFromLowerLayer
vector 488 Highway.car[15].lteNic.phy txRxDistanceSCI:vector ETV
attr source txRxDistanceSCI
attr title "Distance between transmitter and receiver, vector"
vector 489 Highway.car[15].lteNic.phy senderID:vector ETV
attr source senderID
attr title "ID of node who sent message, vector"
vector 490 Highway.car[15].lteNic.phy sciReceived:vector ETV
attr source sciReceived
attr title "Number of received sci, vector"
vector 491 Highway.car[15].lteNic.phy sciUnsensed:vector ETV
attr source sciUnsensed
attr title "Number of failed SCIs due to RSRP below threshold, vector"
vector 492 Highway.car[15].lteNic.phy sciDecoded:vector ETV
attr source sciDecoded
attr title "Number of sci successfully decoded, vector"
vector 493 Highway.car[15].lteNic.phy sciFailedDueToProp:vector ETV
attr source sciFailedDueToProp
attr title "Number of failed SCIs due to propogation, vector"
vector 494 Highway.car[15].lteNic.phy sciFailedDueToInterference:vector ETV
attr source sciFailedDueToInterference
attr title "Number of failed SCIs due to interference, vector"
vector 495 Highway.car[15].lteNic.phy sciFailedHalfDuplex:vector ETV
attr source sciFailedHalfDuplex
attr title "Number of failed SCIs due to Half Duplex, vector"
vector 496 Highway.car[15].lteNic.phy subchannelReceived:vector ETV
attr source subchannelReceived
attr title "Initial Subchannel on which packet is received, vector"
vector 497 Highway.car[15].lteNic.phy subchannelsUsed:vector ETV
attr source subchannelsUsed
attr title "Number of Subchannels used for the received packet, vector"
vector 498 Highway.car[15].lteNic.phy txRxDistanceTB:vector ETV
attr source txRxDistanceTB
attr title "Distance between transmitter and receiver, vector"
vector 499 Highway.car[15].lteNic.phy tbReceived:vector ETV
attr source tbReceived
attr title "Number of tb received, vector"
vector 500 Highway.car[15].lteNic.phy tbDecoded:vector ETV
attr source tbDecoded
attr title "Number of tb Decoded, vector"
vector 501 Highway.car[15].lteNic.phy tbFailedDueToNoSCI:vector ETV
attr source tbFailedDueToNoSCI
attr title "Number of tb not decoded due to no SCI, vector"
vector 502 Highway.car[15].lteNic.phy tbFailedDueToProp:vector ETV
attr source tbFailedDueToProp
attr title "Number of failed TBs due to propogation, vector"
vector 503 Highway.car[15].lteNic.phy tbFailedDueToInterference:vector ETV
attr source tbFailedDueToInterference
attr title "Number of failed TBs due to interference, vector"
vector 504 Highway.car[15].lteNic.phy tbFailedButSCIReceived:vector ETV
attr source tbFailedButSCIReceived
attr title "Number of failed TBs with a decoded SCI, vector"
vector 505 Highway.car[15].lteNic.phy tbFailedHalfDuplex:vector ETV
attr source tbFailedHalfDuplex
attr title "Number of failed TBs due to Half Duplex, vector"
vector 506 Highway.car[15].lteNic.phy periodic:vector ETV
attr source periodic
attr title "Identifies traffic as periodic or aperiodic, vector"
[...]
1139	1602224 22 17135 17135 500.259 500.259 1 10 10 10 100
1140	1602246 63 17135 17914 500.259 500.271 3 0 5 5 25
1141	1602309 21 17135 17135 500.259 500.259 1 1 1 1 1
1142	1602330 42 17135 17899 500.259 500.271 2 1 3 4 10
1143	1602372 27 17137 17137 500.259 500.259 1 500.271 500.271 500.271 250271.073441
1144	1602399 21 17137 17137 500.259 500.259 1 2 2 2 4
1145	1602420 21 17137 17137 500.259 500.259 1 1 1 1 1
1146	1602441 21 17137 17137 500.259 500.259 1 0 0 0 0
1147	1602462 21 17408 17408 500.264 500.264 1 1 1 1 1
1148	1602483 21 17439 17439 500.264 500.264 1 0 0 0 0
1149	1602504 21 17439 17439 500.264 500.264 1 1 1 1 1
1150	1602525 21 17442 17442 500.264 500.264 1 8 8 8 64
1151	1602546 61 17442 19303 500.264 500.29 3 0 5 5 25
1152	1602607 21 17442 17442 500.264 500.264 1 1 1 1 1
1153	1602628 41 17442 19285 500.264 500.29 2 1 3 4 10
1154	1602669 26 17444 17444 500.264 500.264 1 500.29 500.29 500.29 250290.0841
1155	1602695 21 17444 17444 500.264 500.264 1 0 0 0 0
1156	1602716 21 17444 17444 500.264 500.264 1 1 1 1 1
1157	1602737 21 17444 17444 500.264 500.264 1 0 0 0 0
1158	1602758 21 17475 17475 500.264 500.264 1 1 1 1 1
1159	1602779 21 17475 17475 500.264 500.264 1 1 1 1 1
1160	1602800 21 17596 17596 500.267 500.267 1 1 1 1 1
1161	1602821 21 17627 17627 500.267 500.267 1 0 0 0 0
1162	1602842 21 17627 17627 500.267 500.267 1 1 1 1 1
1163	1602863 22 17630 17630 500.267 500.267 1 15 15 15 225
1164	1602885 61 17630 22209 500.267 500.33 3 0 5 5 25
1165	1602946 21 17630 17630 500.267 500.267 1 1 1 1 1
1166	1602967 41 17630 22186 500.267 500.33 2 1 3 4 10
1167	1603008 26 17632 17632 500.267 500.267 1 500.33 500.33 500.33 250330.1089
1168	1603034 21 17632 17632 500.267 500.267 1 0 0 0 0
1169	1603055 21 17632 17632 500.267 500.267 1 1 1 1 1
1170	1603076 21 17632 17632 500.267 500.267 1 0 0 0 0
1171	1603097 21 17663 17663 500.268 500.268 1 1 1 1 1
1172	1603118 21 17694 17694 500.268 500.268 1 0 0 0 0
1173	1603139 21 17694 17694 500.268 500.268 1 1 1 1 1
1174	1603160 22 17697 17697 500.268 500.268 1 14 14 14 196
1175	1603182 63 17697 24532 500.268 500.364 3 0 5 5 25
1176	1603245 21 17697 17697 500.268 500.268 1 1 1 1 1
1177	1603266 42 17697 24518 500.268 500.364 2 1 3 4 10
1178	1603308 27 17699 17699 500.268 500.268 1 500.364 500.364 500.364 250364.132496
1179	1603335 21 17699 17699 500.268 500.268 1 2 2 2 4
1180	1603356 21 17699 17699 500.268 500.268 1 1 1 1 1
1181	1603377 21 17699 17699 500.268 500.268 1 0 0 0 0
1182	1603398 21 17914 17914 500.271 500.271 1 5 5 5 25
1183	1603419 21 17915 17915 500.271 500.271 1 1 1 1 1
1184	1603440 21 17915 17915 500.271 500.271 1 2 2 2 4
1185	1603461 21 17915 17915 500.271 500.271 1 1 1 1 1
1186	1603482 21 17916 17916 500.271 500.271 1 1 1 1 1
1187	1603503 146 18938 40086 500.285 500.585 4 0.01010101010101 0.016835016835017 0.050505050505051 0.00066886598873131
1188	1603649 146 18938 40086 500.285 500.585 4 0.01010101010101 0.016835016835017 0.050505050505051 0.00066886598873131
1189	1603795 146 18968 40116 500.285 500.585 4 0.01010101010101 0.016835016835017 0.050505050505051 0.00066886598873131
1190	1603941 20 19303 19303 500.29 500.29 1 5 5 5 25
1191	1603961 20 19304 19304 500.29 500.29 1 1 1 1 1
1192	1603981 20 19304 19304 500.29 500.29 1 0 0 0 0
1193	1604001 20 19304 19304 500.29 500.29 1 1 1 1 1
1194	1604021 20 19305 19305 500.29 500.29 1 1 1 1 1
1195	1604041 21 19718 19718 500.293 500.293 1 1 1 1 1
1196	1604062 21 19718 19718 500.293 500.293 1 1 1 1 1
1197	1604083 21 21419 21419 500.321 500.321 1 5 5 5 25
1198	1604104 21 21420 21420 500.321 500.321 1 1 1 1 1
1199	1604125 21 21420 21420 500.321 500.321 1 1 1 1 1
1200	1604146 21 21420 21420 500.321 500.321 1 1 1 1 1
1201	1604167 21 21421 21421 500.321 500.321 1 1 1 1 1
1202	1604188 21 21964 21964 500.326 500.326 1 1 1 1 1
1203	1604209 21 21964 21964 500.326 500.326 1 1 1 1 1
1204	1604230 20 22209 22209 500.33 500.33 1 5 5 5 25
1205	1604250 20 22210 22210 500.33 500.33 1 1 1 1 1
1206	1604270 20 22210 22210 500.33 500.33 1 0 0 0 0
1207	1604290 20 22210 22210 500.33 500.33 1 1 1 1 1
1208	1604310 20 22211 22211 500.33 500.33 1 1 1 1 1
1209	1604330 21 22694 22694 500.335 500.335 1 1 1 1 1
1210	1604351 21 22725 22725 500.335 500.335 1 0 0 0 0
1211	1604372 21 22725 22725 500.335 500.335 1 1 1 1 1
1212	1604393 22 22728 22728 500.335 500.335 1 14 14 14 196
1213	1604415 63 22728 24529 500.335 500.364 3 0 5 5 25
1214	1604478 21 22728 22728 500.335 500.335 1 1 1 1 1
1215	1604499 42 22728 24505 500.335 500.364 2 1 3 4 10
1216	1604541 27 22730 22730 500.335 500.335 1 500.364 500.364 500.364 250364.132496
1217	1604568 21 22730 22730 500.335 500.335 1 0 0 0 0
1218	1604589 21 22730 22730 500.335 500.335 1 1 1 1 1
1219	1604610 21 22730 22730 500.335 500.335 1 0 0 0 0
1220	1604631 111 24059 37905 500.357 500.557 3 0.0033670033670034 0.02020202020202 0.037037037037037 0.00060084571869084
1221	1604742 111 24059 37905 500.357 500.557 3 0.0033670033670034 0.02020202020202 0.037037037037037 0.00060084571869084
1222	1604853 111 24070 37916 500.357 500.557 3 0.0033670033670034 0.02020202020202 0.037037037037037 0.00060084571869084
1223	1604964 21 24529 24529 500.364 500.364 1 5 5 5 25
1224	1604985 21 24530 24530 500.364 500.364 1 1 1 1 1
1225	1605006 21 24530 24530 500.364 500.364 1 0 0 0 0
1226	1605027 21 24530 24530 500.364 500.364 1 1 1 1 1
1227	1605048 21 24531 24531 500.364 500.364 1 1 1 1 1
1228	1605069 21 24532 24532 500.364 500.364 1 5 5 5 25
1229	1605090 21 24533 24533 500.364 500.364 1 1 1 1 1
1230	1605111 21 24533 24533 500.364 500.364 1 2 2 2 4
1231	1605132 21 24533 24533 500.364 500.364 1 1 1 1 1
1232	1605153 21 24534 24534 500.364 500.364 1 1 1 1 1
1233	1605174 21 25383 25383 500.371 500.371 1 1 1 1 1
1234	1605195 21 25383 25383 500.371 500.371 1 1 1 1 1
1235	1605216 110 25395 39288 500.372 500.572 3 0.01010101010101 0.016835016835017 0.04040404040404 0.0005668355836706
1236	1605326 109 25395 39288 500.372 500.572 3 0.01010101010101 0.016835016835017 0.037037037037037 0.00048747860195672
1237	1605435 110 25418 39311 500.372 500.572 3 0.01010101010101 0.016835016835017 0.04040404040404 0.0005668355836706
1238	1605545 20 26539 26539 500.39 500.39 1 1 1 1 1
1239	1605565 20 26539 26539 500.39 500.39 1 1 1 1 1
1240	1605585 21 26900 26900 500.397 500.397 1 1 1 1 1
1241	1605606 21 26931 26931 500.397 500.397 1 0 0 0 0
1242	1605627 21 26931 26931 500.397 500.397 1 1 1 1 1
1243	1605648 22 26934 26934 500.397 500.397 1 15 15 15 225
1244	1605670 61 26934 27763 500.397 500.41 3 0 5 5 25
1245	1605731 21 26934 26934 500.397 500.397 1 1 1 1 1
1246	1605752 41 26934 27757 500.397 500.41 2 1 3 4 10
1247	1605793 26 26936 26936 500.397 500.397 1 500.41 500.41 500.41 250410.1681
1248	1605819 21 26936 26936 500.397 500.397 1 2 2 2 4
1249	1605840 21 26936 26936 500.397 500.397 1 1 1 1 1
1250	1605861 21 26936 26936 500.397 500.397 1 0 0 0 0
1251	1605882 20 27763 27763 500.41 500.41 1 5 5 5 25
1252	1605902 20 27764 27764 500.41 500.41 1 1 1 1 1
1253	1605922 20 27764 27764 500.41 500.41 1 2 2 2 4
1254	1605942 20 27764 27764 500.41 500.41 1 1 1 1 1
1255	1605962 20 27765 27765 500.41 500.41 1 1 1 1 1
1256	1605982 21 28663 28663 500.421 500.421 1 1 1 1 1
1257	1606003 21 28663 28663 500.421 500.421 1 1 1 1 1
1258	1606024 21 28725 28725 500.423 500.423 1 1 1 1 1
1259	1606045 21 28756 28756 500.423 500.423 1 0 0 0 0
1260	1606066 21 28756 28756 500.423 500.423 1 1 1 1 1
1261	1606087 22 28759 28759 500.423 500.423 1 10 10 10 100
1262	1606109 63 28759 29735 500.423 500.438 3 0 5 5 25
1263	1606172 21 28759 28759 500.423 500.423 1 1 1 1 1
1264	1606193 42 28759 29707 500.423 500.438 2 1 3 4 10
1265	1606235 27 28761 28761 500.423 500.423 1 500.438 500.438 500.438 250438.191844
1266	1606262 21 28761 28761 500.423 500.423 1 1 1 1 1
1267	1606283 21 28761 28761 500.423 500.423 1 1 1 1 1
1268	1606304 21 28761 28761 500.423 500.423 1 0 0 0 0
1269	1606325 21 28917 28917 500.426 500.426 1 1 1 1 1
1270	1606346 21 28948 28948 500.426 500.426 1 0 0 0 0
1271	1606367 21 28948 28948 500.426 500.426 1 1 1 1 1
1272	1606388 22 28954 28954 500.426 500.426 1 12 12 12 144
1273	1606410 63 28954 29738 500.426 500.438 3 0 5 5 25
1274	1606473 21 28954 28954 500.426 500.426 1 1 1 1 1
1275	1606494 42 28954 29719 500.426 500.438 2 1 3 4 10
1276	1606536 27 28958 28958 500.426 500.426 1 500.438 500.438 500.438 250438.191844
1277	1606563 21 28958 28958 500.426 500.426 1 2 2 2 4
1278	1606584 21 28958 28958 500.426 500.426 1 1 1 1 1
1279	1606605 21 28958 28958 500.426 500.426 1 0 0 0 0
1280	1606626 21 28989 28989 500.427 500.427 1 1 1 1 1
1281	1606647 21 29020 29020 500.427 500.427 1 0 0 0 0
1282	1606668 21 29020 29020 500.427 500.427 1 1 1 1 1
1283	1606689 22 29023 29023 500.427 500.427 1 11 11 11 121
1284	1606711 63 29023 31144 500.427 500.454 3 0 5 5 25
1285	1606774 21 29023 29023 500.427 500.427 1 1 1 1 1
1286	1606795 42 29023 31131 500.427 500.454 2 1 3 4 10
1287	1606837 27 29025 29025 500.427 500.427 1 500.454 500.454 500.454 250454.206116
1288	1606864 21 29025 29025 500.427 500.427 1 0 0 0 0
1289	1606885 21 29025 29025 500.427 500.427 1 1 1 1 1
1290	1606906 21 29025 29025 500.427 500.427 1 0 0 0 0
1291	1606927 20 29236 29236 500.43 500.43 1 1 1 1 1
1292	1606947 20 29236 29236 500.43 500.43 1 1 1 1 1
1293	1606967 21 29735 29735 500.438 500.438 1 5 5 5 25
1294	1606988 21 29736 29736 500.438 500.438 1 1 1 1 1
1295	1607009 21 29736 29736 500.438 500.438 1 1 1 1 1
1296	1607030 21 29736 29736 500.438 500.438 1 1 1 1 1
1297	1607051 21 29737 29737 500.438 500.438 1 1 1 1 1
1298	1607072 21 29738 29738 500.438 500.438 1 5 5 5 25
1299	1607093 21 29739 29739 500.438 500.438 1 1 1 1 1
1300	1607114 21 29739 29739 500.438 500.438 1 2 2 2 4
1301	1607135 21 29739 29739 500.438 500.438 1 1 1 1 1
1302	1607156 21 29740 29740 500.438 500.438 1 1 1 1 1
1303	1607177 21 31144 31144 500.454 500.454 1 5 5 5 25
1304	1607198 21 31145 31145 500.454 500.454 1 1 1 1 1
1305	1607219 21 31145 31145 500.454 500.454 1 0 0 0 0
1306	1607240 21 31145 31145 500.454 500.454 1 1 1 1 1
1307	1607261 21 31146 31146 500.454 500.454 1 1 1 1 1
1308	1607282 21 31990 31990 500.464 500.464 1 1 1 1 1
1309	1607303 21 31990 31990 500.464 500.464 1 1 1 1 1
1310	1607324 21 31991 31991 500.464 500.464 1 1 1 1 1
1311	1607345 21 31991 31991 500.464 500.464 1 1 1 1 1
1312	1607366 21 32782 32782 500.478 500.478 1 1 1 1 1
1313	1607387 21 32813 32813 500.478 500.478 1 0 0 0 0
1314	1607408 21 32813 32813 500.478 500.478 1 1 1 1 1
1315	1607429 21 32816 32816 500.478 500.478 1 5 5 5 25
1316	1607450 63 32816 38436 500.478 500.565 3 0 5 5 25
1317	1607513 21 32816 32816 500.478 500.478 1 1 1 1 1
1318	1607534 42 32816 38411 500.478 500.565 2 1 3 4 10
1319	1607576 27 32818 32818 500.478 500.478 1 500.565 500.565 500.565 250565.319225
1320	1607603 21 32818 32818 500.478 500.478 1 2 2 2 4
1321	1607624 21 32818 32818 500.478 500.478 1 1 1 1 1
1322	1607645 21 32818 32818 500.478 500.478 1 0 0 0 0
1323	1607666 19 34115 34115 500.5 500.5 1 1 1 1 1
1324	1607685 19 34147 34147 500.5 500.5 1 0 0 0 0
1325	1607704 19 34147 34147 500.5 500.5 1 1 1 1 1
1326	1607723 19 34150 34150 500.5 500.5 1 9 9 9 81
1327	1607742 61 34150 35298 500.5 500.518 3 0 5 5 25
1328	1607803 19 34150 34150 500.5 500.5 1 1 1 1 1
1329	1607822 40 34150 35270 500.5 500.518 2 1 3 4 10
1330	1607862 25 34152 34152 500.5 500.5 1 500.518 500.518 500.518 250518.268324
1331	1607887 19 34152 34152 500.5 500.5 1 2 2 2 4
1332	1607906 19 34152 34152 500.5 500.5 1 1 1 1 1
1333	1607925 19 34152 34152 500.5 500.5 1 0 0 0 0
1334	1607944 20 34741 34741 500.51 500.51 1 1 1 1 1
1335	1607964 20 34772 34772 500.51 500.51 1 0 0 0 0
1336	1607984 20 34772 34772 500.51 500.51 1 1 1 1 1
1337	1608004 21 34775 34775 500.51 500.51 1 13 13 13 169
1338	1608025 62 34775 40398 500.51 500.589 3 0 5 5 25
1339	1608087 20 34775 34775 500.51 500.51 1 1 1 1 1
1340	1608107 41 34775 40368 500.51 500.589 2 1 3 4 10
1341	1608148 26 34777 34777 500.51 500.51 1 500.589 500.589 500.589 250589.346921
1342	1608174 20 34777 34777 500.51 500.51 1 0 0 0 0
1343	1608194 20 34777 34777 500.51 500.51 1 1 1 1 1
1344	1608214 20 34777 34777 500.51 500.51 1 0 0 0 0
1345	1608234 20 34808 34808 500.51 500.51 1 1 1 1 1
1346	1608254 20 34808 34808 500.51 500.51 1 1 1 1 1
1347	1608274 21 35298 35298 500.518 500.518 1 5 5 5 25
1348	1608295 21 35299 35299 500.518 500.518 1 1 1 1 1
1349	1608316 21 35299 35299 500.518 500.518 1 2 2 2 4
1350	1608337 21 35299 35299 500.518 500.518 1 1 1 1 1
1351	1608358 21 35300 35300 500.518 500.518 1 1 1 1 1
1352	1608379 21 35833 35833 500.524 500.524 1 1 1 1 1
1353	1608400 21 35864 35864 500.524 500.524 1 0 0 0 0
1354	1608421 21 35864 35864 500.524 500.524 1 1 1 1 1
1355	1608442 22 35870 35870 500.524 500.524 1 15 15 15 225
1356	1608464 21 35870 35870 500.524 500.524 1 0 0 0 0
1357	1608485 21 35870 35870 500.524 500.524 1 1 1 1 1
1358	1608506 21 35870 35870 500.524 500.524 1 1 1 1 1
1359	1608527 27 35874 35874 500.524 500.524 1 500.621 500.621 500.621 250621.385641
1360	1608554 21 35874 35874 500.524 500.524 1 2 2 2 4
1361	1608575 21 35874 35874 500.524 500.524 1 1 1 1 1
1362	1608596 21 35874 35874 500.524 500.524 1 0 0 0 0
1363	1608617 37 35906 35906 500.525 500.525 1 0.013468013468013 0.013468013468013 0.013468013468013 0.00018138738677459
1364	1608654 37 35906 35906 500.525 500.525 1 0.013468013468013 0.013468013468013 0.013468013468013 0.00018138738677459
1365	1608691 37 35939 35939 500.525 500.525 1 0.013468013468013 0.013468013468013 0.013468013468013 0.00018138738677459
1366	1608728 36 36243 36243 500.53 500.53 1 0.013468013468013 0.013468013468013 0.013468013468013 0.00018138738677459
1367	1608764 36 36243 36243 500.53 500.53 1 0.013468013468013 0.013468013468013 0.013468013468013 0.00018138738677459
1368	1608800 36 36249 36249 500.53 500.53 1 0.013468013468013 0.013468013468013 0.013468013468013 0.00018138738677459
1369	1608836 21 36770 36770 500.538 500.538 1 1 1 1 1
1370	1608857 21 36770 36770 500.538 500.538 1 1 1 1 1
1371	1608878 21 36771 36771 500.538 500.538 1 1 1 1 1
1372	1608899 21 36771 36771 500.538 500.538 1 1 1 1 1
1373	1608920 38 37407 37407 500.549 500.549 1 0.0067340067340067 0.0067340067340067 0.0067340067340067 4.5346846693648e-05
1374	1608958 38 37407 37407 500.549 500.549 1 0.0067340067340067 0.0067340067340067 0.0067340067340067 4.5346846693648e-05
1375	1608996 38 37415 37415 500.549 500.549 1 0.0067340067340067 0.0067340067340067 0.0067340067340067 4.5346846693648e-05
1376	1609034 21 37751 37751 500.554 500.554 1 1 1 1 1
1377	1609055 21 37751 37751 500.554 500.554 1 1 1 1 1
1378	1609076 38 37817 37817 500.556 500.556 1 0.0033670033670034 0.0033670033670034 0.0033670033670034 1.1336711673412e-05
1379	1609114 38 37817 37817 500.556 500.556 1 0.0033670033670034 0.0033670033670034 0.0033670033670034 1.1336711673412e-05
1380	1609152 38 37851 37851 500.556 500.556 1 0.0033670033670034 0.0033670033670034 0.0033670033670034 1.1336711673412e-05
1381	1609190 38 38211 38211 500.562 500.562 1 0.0033670033670034 0.0033670033670034 0.0033670033670034 1.1336711673412e-05
1382	1609228 38 38211 38211 500.562 500.562 1 0.0033670033670034 0.0033670033670034 0.0033670033670034 1.1336711673412e-05
1383	1609266 38 38221 38221 500.562 500.562 1 0.0033670033670034 0.0033670033670034 0.0033670033670034 1.1336711673412e-05
1384	1609304 21 38436 38436 500.565 500.565 1 5 5 5 25
1385	1609325 21 38437 38437 500.565 500.565 1 1 1 1 1
1386	1609346 21 38437 38437 500.565 500.565 1 2 2 2 4
1387	1609367 21 38437 38437 500.565 500.565 1 1 1 1 1
1388	1609388 21 38438 38438 500.565 500.565 1 1 1 1 1
1389	1609409 24 38856 38856 500.567 500.567 1 0.55 0.55 0.55 0.3025
1390	1609433 24 38860 38860 500.567 500.567 1 0.55 0.55 0.55 0.3025
1391	1609457 24 38868 38868 500.567 500.567 1 0.55 0.55 0.55 0.3025
1392	1609481 24 38872 38872 500.567 500.567 1 0.55 0.55 0.55 0.3025
1393	1609505 24 38876 38876 500.567 500.567 1 0.55 0.55 0.55 0.3025
1394	1609529 24 38882 38882 500.567 500.567 1 0.55 0.55 0.55 0.3025
1395	1609553 24 38886 38886 500.567 500.567 1 0.55 0.55 0.55 0.3025
1396	1609577 24 38906 38906 500.567 500.567 1 0.55 0.55 0.55 0.3025
1397	1609601 24 38908 38908 500.567 500.567 1 0.55 0.55 0.55 0.3025
1398	1609625 49 38910 41544 500.567 500.602 2 0.437 0.55 0.987 0.493469
1399	1609674 20 39150 39150 500.57 500.57 1 1 1 1 1
1400	1609694 20 39181 39181 500.57 500.57 1 0 0 0 0
1401	1609714 20 39181 39181 500.57 500.57 1 1 1 1 1
1402	1609734 20 39184 39184 500.57 500.57 1 6 6 6 36
1403	1609754 62 39184 42345 500.57 500.613 3 0 5 5 25
1404	1609816 20 39184 39184 500.57 500.57 1 1 1 1 1
1405	1609836 41 39184 42336 500.57 500.613 2 1 3 4 10
1406	1609877 26 39186 39186 500.57 500.57 1 500.613 500.613 500.613 250613.375769
1407	1609903 20 39186 39186 500.57 500.57 1 1 1 1 1
1408	1609923 20 39186 39186 500.57 500.57 1 1 1 1 1
1409	1609943 20 39186 39186 500.57 500.57 1 0 0 0 0
1410	1609963 21 39648 39648 500.578 500.578 1 1 1 1 1
1411	1609984 21 39679 39679 500.578 500.578 1 0 0 0 0
1412	1610005 21 39679 39679 500.578 500.578 1 1 1 1 1
1413	1610026 22 39682 39682 500.578 500.578 1 15 15 15 225
1414	1610048 21 39682 39682 500.578 500.578 1 0 0 0 0
1415	1610069 21 39682 39682 500.578 500.578 1 1 1 1 1
1416	1610090 21 39682 39682 500.578 500.578 1 1 1 1 1
1417	1610111 27 39684 39684 500.578 500.578 1 500.665 500.665 500.665 250665.442225
1418	1610138 21 39684 39684 500.578 500.578 1 1 1 1 1
1419	1610159 21 39684 39684 500.578 500.578 1 1 1 1 1
1420	1610180 21 39684 39684 500.578 500.578 1 0 0 0 0
1421	1610201 21 40398 40398 500.589 500.589 1 5 5 5 25
1422	1610222 21 40399 40399 500.589 500.589 1 1 1 1 1
1423	1610243 21 40399 40399 500.589 500.589 1 0 0 0 0
1424	1610264 21 40399 40399 500.589 500.589 1 1 1 1 1
1425	1610285 21 40400 40400 500.589 500.589 1 1 1 1 1
1426	1610306 37 41115 41115 500.598 500.598 1 0.010204081632653 0.010204081632653 0.010204081632653 0.00010412328196585
1427	1610343 37 41115 41115 500.598 500.598 1 0.010204081632653 0.010204081632653 0.010204081632653 0.00010412328196585
1428	1610380 37 41147 41147 500.598 500.598 1 0.010204081632653 0.010204081632653 0.010204081632653 0.00010412328196585
1429	1610417 25 41492 41492 500.602 500.602 1 0.437 0.437 0.437 0.190969
1430	1610442 25 41496 41496 500.602 500.602 1 0.437 0.437 0.437 0.190969
1431	1610467 25 41498 41498 500.602 500.602 1 0.437 0.437 0.437 0.190969
1432	1610492 25 41500 41500 500.602 500.602 1 0.437 0.437 0.437 0.190969
1433	1610517 25 41504 41504 500.602 500.602 1 0.437 0.437 0.437 0.190969
1434	1610542 25 41508 41508 500.602 500.602 1 0.437 0.437 0.437 0.190969
1435	1610567 25 41512 41512 500.602 500.602 1 0.437 0.437 0.437 0.190969
1436	1610592 25 41514 41514 500.602 500.602 1 0.437 0.437 0.437 0.190969
1437	1610617 25 41518 41518 500.602 500.602 1 0.437 0.437 0.437 0.190969
1438	1610642 25 41522 41522 500.602 500.602 1 0.437 0.437 0.437 0.190969
1439	1610667 25 41524 41524 500.602 500.602 1 0.437 0.437 0.437 0.190969
1440	1610692 25 41526 41526 500.602 500.602 1 0.437 0.437 0.437 0.190969
1441	1610717 25 41528 41528 500.602 500.602 1 0.437 0.437 0.437 0.190969
1442	1610742 25 41530 41530 500.602 500.602 1 0.437 0.437 0.437 0.190969
1443	1610767 25 41532 41532 500.602 500.602 1 0.437 0.437 0.437 0.190969
1444	1610792 25 41534 41534 500.602 500.602 1 0.437 0.437 0.437 0.190969
1445	1610817 25 41536 41536 500.602 500.602 1 0.437 0.437 0.437 0.190969
1446	1610842 25 41546 41546 500.602 500.602 1 0.437 0.437 0.437 0.190969
1447	1610867 37 42224 42224 500.612 500.612 1 0.016835016835017 0.016835016835017 0.016835016835017 0.0002834177918353
1448	1610904 37 42224 42224 500.612 500.612 1 0.016835016835017 0.016835016835017 0.016835016835017 0.0002834177918353
1449	1610941 37 42250 42250 500.612 500.612 1 0.016835016835017 0.016835016835017 0.016835016835017 0.0002834177918353
1450	1610978 21 42345 42345 500.613 500.613 1 5 5 5 25
1451	1610999 21 42346 42346 500.613 500.613 1 1 1 1 1
1452	1611020 21 42346 42346 500.613 500.613 1 1 1 1 1
1453	1611041 21 42346 42346 500.613 500.613 1 1 1 1 1
1454	1611062 21 42347 42347 500.613 500.613 1 1 1 1 1

