file 13991414 1658724887                                        
version 2
run Hackathon114-0-20220725-13:46:36-9707
attr configname Hackathon114
attr datetime 20220725-13:46:36
attr experiment Hackathon114
attr inifile omnetpp.ini
attr iterationvars ""
attr iterationvarsf ""
attr measurement ""
attr network lte.simulations.Mode4.Highway
attr processid 9707
attr repetition 0
attr replication #0
attr resultdir results
attr runnumber 0
attr seedset 0
param *.car[*].d2dCapable true
param *.car[*].mode4D2D true
param **.amcMode "\"D2D\""
param *.car[*].applType "\"Mode4App\""
param *.car[*].appl.packetSize 190
param *.car[*].nicType "\"LteNicVUeMode4\""
param *.car[*].lteNic.d2dCapable true
param *.car[*].lteNic.pdcpRrc.ipBased false
param *.car[*].lteNic.rlc.ipBased false
param *.car[*].lteNic.mac.subchannelSize 16
param *.car[*].lteNic.mac.numSubchannels 3
param *.car[*].lteNic.mac.probResourceKeep 0.4
param *.car[*].lteNic.mac.useCBR false
param *.car[*].lteNic.mac.crLimit false
param *.car[*].lteNic.mac.rriLookup false
param *.car[*].lteNic.mac.dccMechanism false
param *.car[*].lteNic.mac.packetDropping false
param *.car[*].lteNic.mac.reselectAfter 1
param *.car[*].lteNic.mac.adjacencyPSCCHPSSCH true
param *.car[*].lteNic.rlc.um.scenario3gpp false
param *.car[*].lteNic.phy.subchannelSize 16
param *.car[*].lteNic.phy.numSubchannels 3
param *.car[*].lteNic.phy.selectionWindowStartingSubframe 1
param *.car[*].lteNic.phy.adjacencyPSCCHPSSCH true
param *.car[*].lteNic.phy.pStep 100
param *.car[*].lteNic.phy.thresholdRSSI 10
param *.car[*].ueTxPower 23
param *.car[*].lteNic.phy.d2dTxPower 23
param *.**.nic.lteNic.phy.usePropagationDelay true
param *.visualizer.mediumVisualizer.displaySignals true
param *.visualizer.physicalLinkVisualizer.displayLinks true
param *.visualizer.physicalLinkVisualizer.packetFilter "\"Mode4Data*\""
param **.usePreconfiguredTxParams true
param **.lteNic.mac.txConfig "xmldoc(\"sidelink_configuration.xml\")"
param **.coreDebug false
param **.routingRecorder.enabled false
param *.playgroundSizeX 2000000m
param *.playgroundSizeY 2000000m
param *.playgroundSizeZ 50m
param **.channelControl.pMax 10W
param **.channelControl.alpha 1.0
param **.channelControl.carrierFrequency 6000e+6Hz
param **.lteNic.phy.channelModel "xmldoc(\"config_channel.xml\")"
param **.feedbackComputation "xmldoc(\"config_channel.xml\")"
param **.rbAllocationType "\"localized\""
param **.feedbackType "\"ALLBANDS\""
param **.feedbackGeneratorType "\"IDEAL\""
param **.maxHarqRtx 0
param **.deployer.ruRange 50
param **.deployer.ruTxPower "\"50,50,50;\""
param **.deployer.antennaCws "\"2;\""
param **.deployer.numRbDl 51
param **.deployer.numRbUl 48
param **.numBands 48
param **.fbDelay 1
param *.veinsManager.moduleType "\"lte.corenetwork.nodes.cars.CarIPv6\""
param *.veinsManager.moduleName "\"car\""
param *.veinsManager.moduleDisplayString "\"\""
param *.veinsManager.launchConfig "xmldoc(\"highway/006vpm/highway.launchd.xml\")"
param *.veinsManager.updateInterval 0.1s
param *.veinsManager.firstStepAt 500s
param *.car[*].mobilityType "\"VeinsInetMobility\""
param **.deployer.positionUpdateInterval 0.01s

vector 0 Highway.car[0].lteNic.phy servingCell:vector ETV
attr source servingCell
attr title "ID of the serving eNodeB for the UE, vector"
attr unit ""
vector 1 Highway.car[0].lteNic.mac macNodeID:vector ETV
attr source macNodeID
attr title "Reports Mac NodeID to allow for trans to nodeID, vector"
vector 2 Highway.car[1].lteNic.phy servingCell:vector ETV
attr source servingCell
attr title "ID of the serving eNodeB for the UE, vector"
attr unit ""
vector 3 Highway.car[1].lteNic.mac macNodeID:vector ETV
attr source macNodeID
attr title "Reports Mac NodeID to allow for trans to nodeID, vector"
vector 4 Highway.car[2].lteNic.phy servingCell:vector ETV
attr source servingCell
attr title "ID of the serving eNodeB for the UE, vector"
attr unit ""
vector 5 Highway.car[2].lteNic.mac macNodeID:vector ETV
attr source macNodeID
attr title "Reports Mac NodeID to allow for trans to nodeID, vector"
vector 6 Highway.car[3].lteNic.phy servingCell:vector ETV
attr source servingCell
attr title "ID of the serving eNodeB for the UE, vector"
attr unit ""
vector 7 Highway.car[3].lteNic.mac macNodeID:vector ETV
attr source macNodeID
attr title "Reports Mac NodeID to allow for trans to nodeID, vector"
vector 8 Highway.car[4].lteNic.phy servingCell:vector ETV
attr source servingCell
attr title "ID of the serving eNodeB for the UE, vector"
attr unit ""
vector 9 Highway.car[4].lteNic.mac macNodeID:vector ETV
attr source macNodeID
attr title "Reports Mac NodeID to allow for trans to nodeID, vector"
vector 10 Highway.car[5].lteNic.phy servingCell:vector ETV
attr source servingCell
attr title "ID of the serving eNodeB for the UE, vector"
attr unit ""
vector 11 Highway.car[5].lteNic.mac macNodeID:vector ETV
attr source macNodeID
attr title "Reports Mac NodeID to allow for trans to nodeID, vector"
vector 12 Highway.car[6].lteNic.phy servingCell:vector ETV
attr source servingCell
attr title "ID of the serving eNodeB for the UE, vector"
attr unit ""
vector 13 Highway.car[6].lteNic.mac macNodeID:vector ETV
attr source macNodeID
attr title "Reports Mac NodeID to allow for trans to nodeID, vector"
vector 14 Highway.car[7].lteNic.phy servingCell:vector ETV
attr source servingCell
attr title "ID of the serving eNodeB for the UE, vector"
attr unit ""
vector 15 Highway.car[7].lteNic.mac macNodeID:vector ETV
attr source macNodeID
attr title "Reports Mac NodeID to allow for trans to nodeID, vector"
vector 16 Highway.car[8].lteNic.phy servingCell:vector ETV
attr source servingCell
attr title "ID of the serving eNodeB for the UE, vector"
attr unit ""
vector 17 Highway.car[8].lteNic.mac macNodeID:vector ETV
attr source macNodeID
attr title "Reports Mac NodeID to allow for trans to nodeID, vector"
vector 18 Highway.car[9].lteNic.phy servingCell:vector ETV
attr source servingCell
attr title "ID of the serving eNodeB for the UE, vector"
attr unit ""
vector 19 Highway.car[9].lteNic.mac macNodeID:vector ETV
attr source macNodeID
attr title "Reports Mac NodeID to allow for trans to nodeID, vector"
vector 20 Highway.car[10].lteNic.phy servingCell:vector ETV
attr source servingCell
attr title "ID of the serving eNodeB for the UE, vector"
attr unit ""
vector 21 Highway.car[10].lteNic.mac macNodeID:vector ETV
attr source macNodeID
attr title "Reports Mac NodeID to allow for trans to nodeID, vector"
vector 22 Highway.car[11].lteNic.phy servingCell:vector ETV
attr source servingCell
attr title "ID of the serving eNodeB for the UE, vector"
attr unit ""
vector 23 Highway.car[11].lteNic.mac macNodeID:vector ETV
attr source macNodeID
attr title "Reports Mac NodeID to allow for trans to nodeID, vector"
vector 24 Highway.car[12].lteNic.phy servingCell:vector ETV
attr source servingCell
attr title "ID of the serving eNodeB for the UE, vector"
attr unit ""
vector 25 Highway.car[12].lteNic.mac macNodeID:vector ETV
attr source macNodeID
attr title "Reports Mac NodeID to allow for trans to nodeID, vector"
vector 26 Highway.car[13].lteNic.phy servingCell:vector ETV
attr source servingCell
attr title "ID of the serving eNodeB for the UE, vector"
attr unit ""
vector 27 Highway.car[13].lteNic.mac macNodeID:vector ETV
attr source macNodeID
attr title "Reports Mac NodeID to allow for trans to nodeID, vector"
vector 28 Highway.car[14].lteNic.phy servingCell:vector ETV
attr source servingCell
attr title "ID of the serving eNodeB for the UE, vector"
attr unit ""
vector 29 Highway.car[14].lteNic.mac macNodeID:vector ETV
attr source macNodeID
attr title "Reports Mac NodeID to allow for trans to nodeID, vector"
vector 30 Highway.car[15].lteNic.phy servingCell:vector ETV
attr source servingCell
attr title "ID of the serving eNodeB for the UE, vector"
attr unit ""
vector 31 Highway.car[15].lteNic.mac macNodeID:vector ETV
attr source macNodeID
attr title "Reports Mac NodeID to allow for trans to nodeID, vector"
vector 32 Highway.car[16].lteNic.phy servingCell:vector ETV
attr source servingCell
attr title "ID of the serving eNodeB for the UE, vector"
attr unit ""
vector 33 Highway.car[16].lteNic.mac macNodeID:vector ETV
attr source macNodeID
attr title "Reports Mac NodeID to allow for trans to nodeID, vector"
vector 34 Highway.car[17].lteNic.phy servingCell:vector ETV
attr source servingCell
attr title "ID of the serving eNodeB for the UE, vector"
attr unit ""
vector 35 Highway.car[17].lteNic.mac macNodeID:vector ETV
attr source macNodeID
attr title "Reports Mac NodeID to allow for trans to nodeID, vector"
vector 36 Highway.car[18].lteNic.phy servingCell:vector ETV
attr source servingCell
attr title "ID of the serving eNodeB for the UE, vector"
attr unit ""
vector 37 Highway.car[18].lteNic.mac macNodeID:vector ETV
attr source macNodeID
attr title "Reports Mac NodeID to allow for trans to nodeID, vector"
vector 38 Highway.car[19].lteNic.phy servingCell:vector ETV
attr source servingCell
attr title "ID of the serving eNodeB for the UE, vector"
attr unit ""
vector 39 Highway.car[19].lteNic.mac macNodeID:vector ETV
attr source macNodeID
attr title "Reports Mac NodeID to allow for trans to nodeID, vector"
vector 40 Highway.car[20].lteNic.phy servingCell:vector ETV
attr source servingCell
attr title "ID of the serving eNodeB for the UE, vector"
attr unit ""
vector 41 Highway.car[20].lteNic.mac macNodeID:vector ETV
attr source macNodeID
attr title "Reports Mac NodeID to allow for trans to nodeID, vector"
vector 42 Highway.car[21].lteNic.phy servingCell:vector ETV
attr source servingCell
attr title "ID of the serving eNodeB for the UE, vector"
attr unit ""
vector 43 Highway.car[21].lteNic.mac macNodeID:vector ETV
attr source macNodeID
attr title "Reports Mac NodeID to allow for trans to nodeID, vector"
vector 44 Highway.car[22].lteNic.phy servingCell:vector ETV
attr source servingCell
attr title "ID of the serving eNodeB for the UE, vector"
attr unit ""
vector 45 Highway.car[22].lteNic.mac macNodeID:vector ETV
attr source macNodeID
attr title "Reports Mac NodeID to allow for trans to nodeID, vector"
vector 46 Highway.car[23].lteNic.phy servingCell:vector ETV
attr source servingCell
attr title "ID of the serving eNodeB for the UE, vector"
attr unit ""
vector 47 Highway.car[23].lteNic.mac macNodeID:vector ETV
attr source macNodeID
attr title "Reports Mac NodeID to allow for trans to nodeID, vector"
vector 48 Highway.car[24].lteNic.phy servingCell:vector ETV
attr source servingCell
attr title "ID of the serving eNodeB for the UE, vector"
attr unit ""
vector 49 Highway.car[24].lteNic.mac macNodeID:vector ETV
attr source macNodeID
attr title "Reports Mac NodeID to allow for trans to nodeID, vector"
vector 50 Highway.car[25].lteNic.phy servingCell:vector ETV
attr source servingCell
attr title "ID of the serving eNodeB for the UE, vector"
attr unit ""
vector 51 Highway.car[25].lteNic.mac macNodeID:vector ETV
attr source macNodeID
attr title "Reports Mac NodeID to allow for trans to nodeID, vector"
vector 52 Highway.car[26].lteNic.phy servingCell:vector ETV
attr source servingCell
attr title "ID of the serving eNodeB for the UE, vector"
attr unit ""
vector 53 Highway.car[26].lteNic.mac macNodeID:vector ETV
attr source macNodeID
attr title "Reports Mac NodeID to allow for trans to nodeID, vector"
vector 54 Highway.car[27].lteNic.phy servingCell:vector ETV
attr source servingCell
attr title "ID of the serving eNodeB for the UE, vector"
attr unit ""
vector 55 Highway.car[27].lteNic.mac macNodeID:vector ETV
attr source macNodeID
attr title "Reports Mac NodeID to allow for trans to nodeID, vector"
vector 56 Highway.car[28].lteNic.phy servingCell:vector ETV
attr source servingCell
attr title "ID of the serving eNodeB for the UE, vector"
attr unit ""
vector 57 Highway.car[28].lteNic.mac macNodeID:vector ETV
attr source macNodeID
attr title "Reports Mac NodeID to allow for trans to nodeID, vector"
vector 58 Highway.car[29].lteNic.phy servingCell:vector ETV
attr source servingCell
attr title "ID of the serving eNodeB for the UE, vector"
attr unit ""
vector 59 Highway.car[29].lteNic.mac macNodeID:vector ETV
attr source macNodeID
attr title "Reports Mac NodeID to allow for trans to nodeID, vector"
vector 60 Highway.car[0].lteNic.phy posX:vector ETV
attr source posX
attr title "X position of node (at reception time), vector"
vector 61 Highway.car[0].lteNic.phy posY:vector ETV
attr source posY
attr title "Y position of node (at reception time), vector"
vector 62 Highway.car[1].lteNic.phy posX:vector ETV
attr source posX
attr title "X position of node (at reception time), vector"
vector 63 Highway.car[1].lteNic.phy posY:vector ETV
attr source posY
attr title "Y position of node (at reception time), vector"
vector 64 Highway.car[2].lteNic.phy posX:vector ETV
attr source posX
attr title "X position of node (at reception time), vector"
vector 65 Highway.car[2].lteNic.phy posY:vector ETV
attr source posY
attr title "Y position of node (at reception time), vector"
vector 66 Highway.car[3].lteNic.phy posX:vector ETV
attr source posX
attr title "X position of node (at reception time), vector"
vector 67 Highway.car[3].lteNic.phy posY:vector ETV
attr source posY
attr title "Y position of node (at reception time), vector"
vector 68 Highway.car[4].lteNic.phy posX:vector ETV
attr source posX
attr title "X position of node (at reception time), vector"
vector 69 Highway.car[4].lteNic.phy posY:vector ETV
attr source posY
attr title "Y position of node (at reception time), vector"
vector 70 Highway.car[5].lteNic.phy posX:vector ETV
attr source posX
attr title "X position of node (at reception time), vector"
vector 71 Highway.car[5].lteNic.phy posY:vector ETV
attr source posY
attr title "Y position of node (at reception time), vector"
vector 72 Highway.car[6].lteNic.phy posX:vector ETV
attr source posX
attr title "X position of node (at reception time), vector"
vector 73 Highway.car[6].lteNic.phy posY:vector ETV
attr source posY
attr title "Y position of node (at reception time), vector"
vector 74 Highway.car[7].lteNic.phy posX:vector ETV
attr source posX
attr title "X position of node (at reception time), vector"
vector 75 Highway.car[7].lteNic.phy posY:vector ETV
attr source posY
attr title "Y position of node (at reception time), vector"
vector 76 Highway.car[8].lteNic.phy posX:vector ETV
attr source posX
attr title "X position of node (at reception time), vector"
vector 77 Highway.car[8].lteNic.phy posY:vector ETV
attr source posY
attr title "Y position of node (at reception time), vector"
vector 78 Highway.car[9].lteNic.phy posX:vector ETV
attr source posX
attr title "X position of node (at reception time), vector"
vector 79 Highway.car[9].lteNic.phy posY:vector ETV
attr source posY
attr title "Y position of node (at reception time), vector"
vector 80 Highway.car[10].lteNic.phy posX:vector ETV
attr source posX
attr title "X position of node (at reception time), vector"
vector 81 Highway.car[10].lteNic.phy posY:vector ETV
attr source posY
attr title "Y position of node (at reception time), vector"
vector 82 Highway.car[11].lteNic.phy posX:vector ETV
attr source posX
attr title "X position of node (at reception time), vector"
vector 83 Highway.car[11].lteNic.phy posY:vector ETV
attr source posY
attr title "Y position of node (at reception time), vector"
vector 84 Highway.car[12].lteNic.phy posX:vector ETV
attr source posX
attr title "X position of node (at reception time), vector"
vector 85 Highway.car[12].lteNic.phy posY:vector ETV
attr source posY
attr title "Y position of node (at reception time), vector"
vector 86 Highway.car[13].lteNic.phy posX:vector ETV
attr source posX
attr title "X position of node (at reception time), vector"
vector 87 Highway.car[13].lteNic.phy posY:vector ETV
attr source posY
attr title "Y position of node (at reception time), vector"
vector 88 Highway.car[13].lteNic.phy cbr:vector ETV
attr source cbr
attr title "Channel Busy Ratio, vector"
vector 89 Highway.car[13].lteNic.phy cbrPscch:vector ETV
attr source cbrPscch
attr title "Channel Busy Ratio for PSCCH, vector"
vector 90 Highway.car[14].lteNic.phy posX:vector ETV
attr source posX
attr title "X position of node (at reception time), vector"
vector 91 Highway.car[14].lteNic.phy posY:vector ETV
attr source posY
attr title "Y position of node (at reception time), vector"
vector 92 Highway.car[15].lteNic.phy posX:vector ETV
attr source posX
attr title "X position of node (at reception time), vector"
vector 93 Highway.car[15].lteNic.phy posY:vector ETV
attr source posY
attr title "Y position of node (at reception time), vector"
vector 94 Highway.car[16].lteNic.phy posX:vector ETV
attr source posX
attr title "X position of node (at reception time), vector"
vector 95 Highway.car[16].lteNic.phy posY:vector ETV
attr source posY
attr title "Y position of node (at reception time), vector"
vector 96 Highway.car[17].lteNic.phy posX:vector ETV
attr source posX
attr title "X position of node (at reception time), vector"
vector 97 Highway.car[17].lteNic.phy posY:vector ETV
attr source posY
attr title "Y position of node (at reception time), vector"
vector 98 Highway.car[18].lteNic.phy posX:vector ETV
attr source posX
attr title "X position of node (at reception time), vector"
vector 99 Highway.car[18].lteNic.phy posY:vector ETV
attr source posY
attr title "Y position of node (at reception time), vector"
vector 100 Highway.car[19].lteNic.phy posX:vector ETV
attr source posX
attr title "X position of node (at reception time), vector"
vector 101 Highway.car[19].lteNic.phy posY:vector ETV
attr source posY
attr title "Y position of node (at reception time), vector"
vector 102 Highway.car[20].lteNic.phy posX:vector ETV
attr source posX
attr title "X position of node (at reception time), vector"
vector 103 Highway.car[20].lteNic.phy posY:vector ETV
attr source posY
attr title "Y position of node (at reception time), vector"
vector 104 Highway.car[21].lteNic.phy posX:vector ETV
attr source posX
attr title "X position of node (at reception time), vector"
vector 105 Highway.car[21].lteNic.phy posY:vector ETV
attr source posY
attr title "Y position of node (at reception time), vector"
vector 106 Highway.car[22].lteNic.phy posX:vector ETV
attr source posX
attr title "X position of node (at reception time), vector"
vector 107 Highway.car[22].lteNic.phy posY:vector ETV
attr source posY
attr title "Y position of node (at reception time), vector"
vector 108 Highway.car[23].lteNic.phy posX:vector ETV
attr source posX
attr title "X position of node (at reception time), vector"
vector 109 Highway.car[23].lteNic.phy posY:vector ETV
attr source posY
attr title "Y position of node (at reception time), vector"
vector 110 Highway.car[24].lteNic.phy posX:vector ETV
attr source posX
attr title "X position of node (at reception time), vector"
vector 111 Highway.car[24].lteNic.phy posY:vector ETV
attr source posY
attr title "Y position of node (at reception time), vector"
vector 112 Highway.car[25].lteNic.phy posX:vector ETV
attr source posX
attr title "X position of node (at reception time), vector"
vector 113 Highway.car[25].lteNic.phy posY:vector ETV
attr source posY
attr title "Y position of node (at reception time), vector"
vector 114 Highway.car[26].lteNic.phy posX:vector ETV
attr source posX
attr title "X position of node (at reception time), vector"
vector 115 Highway.car[26].lteNic.phy posY:vector ETV
attr source posY
attr title "Y position of node (at reception time), vector"
vector 116 Highway.car[27].lteNic.phy posX:vector ETV
attr source posX
attr title "X position of node (at reception time), vector"
vector 117 Highway.car[27].lteNic.phy posY:vector ETV
attr source posY
attr title "Y position of node (at reception time), vector"
vector 118 Highway.car[28].lteNic.phy posX:vector ETV
attr source posX
attr title "X position of node (at reception time), vector"
vector 119 Highway.car[28].lteNic.phy posY:vector ETV
attr source posY
attr title "Y position of node (at reception time), vector"
vector 120 Highway.car[29].lteNic.phy posX:vector ETV
attr source posX
attr title "X position of node (at reception time), vector"
vector 121 Highway.car[29].lteNic.phy posY:vector ETV
attr source posY
attr title "Y position of node (at reception time), vector"
vector 122 Highway.car[13].lteNic.mac receivedPacketFromLowerLayer:vector(packetBytes) ETV
attr interpolationmode none
attr source receivedPacketFromLowerLayer
vector 123 Highway.car[13].lteNic.mac sentPacketToUpperLayer:vector(packetBytes) ETV
attr interpolationmode none
attr source sentPacketToUpperLayer
vector 124 Highway.car[13].lteNic.pdcpRrc sentPacketToUpperLayer:vector(packetBytes) ETV
attr interpolationmode none
attr source sentPacketToUpperLayer
vector 125 Highway.car[13].appl cbr:vector ETV
attr source cbr
attr title "Channel Busy Ratio, vector"
attr unit ""
vector 126 Highway.car[26].appl sentMsg:vector ETV
attr source sentMsg
attr title "Messages sent, vector"
attr unit ""
vector 127 Highway.car[26].lteNic.pdcpRrc receivedPacketFromUpperLayer:vector(packetBytes) ETV
attr interpolationmode none
attr source receivedPacketFromUpperLayer
vector 128 Highway.car[26].lteNic.pdcpRrc sentPacketToLowerLayer:vector(packetBytes) ETV
attr interpolationmode none
attr source sentPacketToLowerLayer
vector 129 Highway.car[26].lteNic.mac resourceReselectionCounter:vector ETV
attr source resourceReselectionCounter
attr title "ResourceReselectionCounter selectedNumber of transmissions, vector"
vector 130 Highway.car[26].lteNic.mac sentPacketToLowerLayer:vector(packetBytes) ETV
attr interpolationmode none
attr source sentPacketToLowerLayer
vector 131 Highway.car[26].lteNic.mac grantRequests:vector ETV
attr source grantRequests
attr title "Total number of requested grants, vector"
vector 132 Highway.car[26].lteNic.mac receivedPacketFromUpperLayer:vector(packetBytes) ETV
attr interpolationmode none
attr source receivedPacketFromUpperLayer
vector 133 Highway.car[26].lteNic.mac receivedPacketFromLowerLayer:vector(packetBytes) ETV
attr interpolationmode none
attr source receivedPacketFromLowerLayer
vector 134 Highway.car[26].lteNic.mac grantStartTime:vector ETV
attr source grantStartTime
attr title "Grant StartTime, vector"
vector 135 Highway.car[26].lteNic.mac selectedSubchannelIndex:vector ETV
attr source selectedSubchannelIndex
attr title "SelectedSubchannelIndex, vector"
vector 136 Highway.car[26].lteNic.mac selectedNumSubchannels:vector ETV
attr source selectedNumSubchannels
attr title "SelectedNumSubchannels, vector"
vector 137 Highway.car[26].lteNic.mac takingReservedGrant:vector ETV
attr source takingReservedGrant
attr title "takingReservedGrant, vector"
vector 138 Highway.car[26].lteNic.mac sentPacketToUpperLayer:vector(packetBytes) ETV
attr interpolationmode none
attr source sentPacketToUpperLayer
vector 139 Highway.car[26].lteNic.mac selectedMCS:vector ETV
attr source selectedMCS
attr title "MCS selected for transmission, vector"
vector 140 Highway.car[26].lteNic.phy sciSent:vector ETV
attr source sciSent
attr title "Number of sci sent, vector"
vector 141 Highway.car[26].lteNic.phy subchannelSent:vector ETV
attr source subchannelSent
attr title "starting Subchannel used for sent message, vector"
vector 142 Highway.car[26].lteNic.phy subchannelsUsedToSend:vector ETV
attr source subchannelsUsedToSend
attr title "Number of subchannels used for message, vector"
vector 143 Highway.car[26].lteNic.phy tbSent:vector ETV
attr source tbSent
attr title "Number of tb sent, vector"
vector 144 Highway.car[0].lteNic.phy txRxDistanceSCI:vector ETV
attr source txRxDistanceSCI
attr title "Distance between transmitter and receiver, vector"
vector 145 Highway.car[0].lteNic.phy senderID:vector ETV
attr source senderID
attr title "ID of node who sent message, vector"
vector 146 Highway.car[0].lteNic.phy sciReceived:vector ETV
attr source sciReceived
attr title "Number of received sci, vector"
vector 147 Highway.car[0].lteNic.phy sciUnsensed:vector ETV
attr source sciUnsensed
attr title "Number of failed SCIs due to RSRP below threshold, vector"
vector 148 Highway.car[0].lteNic.phy sciDecoded:vector ETV
attr source sciDecoded
attr title "Number of sci successfully decoded, vector"
vector 149 Highway.car[0].lteNic.phy sciFailedDueToProp:vector ETV
attr source sciFailedDueToProp
attr title "Number of failed SCIs due to propogation, vector"
vector 150 Highway.car[0].lteNic.phy sciFailedDueToInterference:vector ETV
attr source sciFailedDueToInterference
attr title "Number of failed SCIs due to interference, vector"
vector 151 Highway.car[0].lteNic.phy sciFailedHalfDuplex:vector ETV
attr source sciFailedHalfDuplex
attr title "Number of failed SCIs due to Half Duplex, vector"
vector 152 Highway.car[0].lteNic.phy subchannelReceived:vector ETV
attr source subchannelReceived
attr title "Initial Subchannel on which packet is received, vector"
vector 153 Highway.car[0].lteNic.phy subchannelsUsed:vector ETV
attr source subchannelsUsed
attr title "Number of Subchannels used for the received packet, vector"
vector 154 Highway.car[0].lteNic.phy txRxDistanceTB:vector ETV
attr source txRxDistanceTB
attr title "Distance between transmitter and receiver, vector"
vector 155 Highway.car[0].lteNic.phy tbReceived:vector ETV
attr source tbReceived
attr title "Number of tb received, vector"
vector 156 Highway.car[0].lteNic.phy tbDecoded:vector ETV
attr source tbDecoded
attr title "Number of tb Decoded, vector"
vector 157 Highway.car[0].lteNic.phy tbFailedDueToNoSCI:vector ETV
attr source tbFailedDueToNoSCI
attr title "Number of tb not decoded due to no SCI, vector"
vector 158 Highway.car[0].lteNic.phy tbFailedDueToProp:vector ETV
attr source tbFailedDueToProp
attr title "Number of failed TBs due to propogation, vector"
vector 159 Highway.car[0].lteNic.phy tbFailedDueToInterference:vector ETV
attr source tbFailedDueToInterference
attr title "Number of failed TBs due to interference, vector"
vector 160 Highway.car[0].lteNic.phy tbFailedButSCIReceived:vector ETV
attr source tbFailedButSCIReceived
attr title "Number of failed TBs with a decoded SCI, vector"
vector 161 Highway.car[0].lteNic.phy tbFailedHalfDuplex:vector ETV
attr source tbFailedHalfDuplex
attr title "Number of failed TBs due to Half Duplex, vector"
vector 162 Highway.car[0].lteNic.phy periodic:vector ETV
attr source periodic
attr title "Identifies traffic as periodic or aperiodic, vector"
vector 163 Highway.car[0].lteNic.phy tbFailedDueToPropIgnoreSCI:vector ETV
attr source tbFailedDueToPropIgnoreSCI
attr title "Number of failed TBs due to propogation, vector"
vector 164 Highway.car[0].lteNic.phy tbFailedDueToInterferenceIgnoreSCI:vector ETV
attr source tbFailedDueToInterferenceIgnoreSCI
attr title "Number of failed TBs due to interference, vector"
vector 165 Highway.car[0].lteNic.phy tbDecodedIgnoreSCI:vector ETV
attr source tbDecodedIgnoreSCI
attr title "Number of failed TBs due to interference, vector"
vector 166 Highway.car[0].lteNic.mac receivedPacketFromLowerLayer:vector(packetBytes) ETV
attr interpolationmode none
attr source receivedPacketFromLowerLayer
vector 167 Highway.car[1].lteNic.phy txRxDistanceSCI:vector ETV
attr source txRxDistanceSCI
attr title "Distance between transmitter and receiver, vector"
vector 168 Highway.car[1].lteNic.phy senderID:vector ETV
attr source senderID
attr title "ID of node who sent message, vector"
vector 169 Highway.car[1].lteNic.phy sciReceived:vector ETV
attr source sciReceived
attr title "Number of received sci, vector"
vector 170 Highway.car[1].lteNic.phy sciUnsensed:vector ETV
attr source sciUnsensed
attr title "Number of failed SCIs due to RSRP below threshold, vector"
vector 171 Highway.car[1].lteNic.phy sciDecoded:vector ETV
attr source sciDecoded
attr title "Number of sci successfully decoded, vector"
vector 172 Highway.car[1].lteNic.phy sciFailedDueToProp:vector ETV
attr source sciFailedDueToProp
attr title "Number of failed SCIs due to propogation, vector"
vector 173 Highway.car[1].lteNic.phy sciFailedDueToInterference:vector ETV
attr source sciFailedDueToInterference
attr title "Number of failed SCIs due to interference, vector"
vector 174 Highway.car[1].lteNic.phy sciFailedHalfDuplex:vector ETV
attr source sciFailedHalfDuplex
attr title "Number of failed SCIs due to Half Duplex, vector"
vector 175 Highway.car[1].lteNic.phy subchannelReceived:vector ETV
attr source subchannelReceived
attr title "Initial Subchannel on which packet is received, vector"
vector 176 Highway.car[1].lteNic.phy subchannelsUsed:vector ETV
attr source subchannelsUsed
attr title "Number of Subchannels used for the received packet, vector"
vector 177 Highway.car[1].lteNic.phy txRxDistanceTB:vector ETV
attr source txRxDistanceTB
attr title "Distance between transmitter and receiver, vector"
vector 178 Highway.car[1].lteNic.phy tbReceived:vector ETV
attr source tbReceived
attr title "Number of tb received, vector"
vector 179 Highway.car[1].lteNic.phy tbDecoded:vector ETV
attr source tbDecoded
attr title "Number of tb Decoded, vector"
vector 180 Highway.car[1].lteNic.phy tbFailedDueToNoSCI:vector ETV
attr source tbFailedDueToNoSCI
attr title "Number of tb not decoded due to no SCI, vector"
vector 181 Highway.car[1].lteNic.phy tbFailedDueToProp:vector ETV
attr source tbFailedDueToProp
attr title "Number of failed TBs due to propogation, vector"
vector 182 Highway.car[1].lteNic.phy tbFailedDueToInterference:vector ETV
attr source tbFailedDueToInterference
attr title "Number of failed TBs due to interference, vector"
vector 183 Highway.car[1].lteNic.phy tbFailedButSCIReceived:vector ETV
attr source tbFailedButSCIReceived
attr title "Number of failed TBs with a decoded SCI, vector"
vector 184 Highway.car[1].lteNic.phy tbFailedHalfDuplex:vector ETV
attr source tbFailedHalfDuplex
attr title "Number of failed TBs due to Half Duplex, vector"
vector 185 Highway.car[1].lteNic.phy periodic:vector ETV
attr source periodic
attr title "Identifies traffic as periodic or aperiodic, vector"
vector 186 Highway.car[1].lteNic.phy tbFailedDueToPropIgnoreSCI:vector ETV
attr source tbFailedDueToPropIgnoreSCI
attr title "Number of failed TBs due to propogation, vector"
vector 187 Highway.car[1].lteNic.phy tbFailedDueToInterferenceIgnoreSCI:vector ETV
attr source tbFailedDueToInterferenceIgnoreSCI
attr title "Number of failed TBs due to interference, vector"
vector 188 Highway.car[1].lteNic.phy tbDecodedIgnoreSCI:vector ETV
attr source tbDecodedIgnoreSCI
attr title "Number of failed TBs due to interference, vector"
vector 189 Highway.car[1].lteNic.mac receivedPacketFromLowerLayer:vector(packetBytes) ETV
attr interpolationmode none
attr source receivedPacketFromLowerLayer
vector 190 Highway.car[2].lteNic.phy txRxDistanceSCI:vector ETV
attr source txRxDistanceSCI
attr title "Distance between transmitter and receiver, vector"
vector 191 Highway.car[2].lteNic.phy senderID:vector ETV
attr source senderID
attr title "ID of node who sent message, vector"
vector 192 Highway.car[2].lteNic.phy sciReceived:vector ETV
attr source sciReceived
attr title "Number of received sci, vector"
vector 193 Highway.car[2].lteNic.phy sciUnsensed:vector ETV
attr source sciUnsensed
attr title "Number of failed SCIs due to RSRP below threshold, vector"
vector 194 Highway.car[2].lteNic.phy sciDecoded:vector ETV
attr source sciDecoded
attr title "Number of sci successfully decoded, vector"
vector 195 Highway.car[2].lteNic.phy sciFailedDueToProp:vector ETV
attr source sciFailedDueToProp
attr title "Number of failed SCIs due to propogation, vector"
vector 196 Highway.car[2].lteNic.phy sciFailedDueToInterference:vector ETV
attr source sciFailedDueToInterference
attr title "Number of failed SCIs due to interference, vector"
vector 197 Highway.car[2].lteNic.phy sciFailedHalfDuplex:vector ETV
attr source sciFailedHalfDuplex
attr title "Number of failed SCIs due to Half Duplex, vector"
vector 198 Highway.car[2].lteNic.phy subchannelReceived:vector ETV
attr source subchannelReceived
attr title "Initial Subchannel on which packet is received, vector"
vector 199 Highway.car[2].lteNic.phy subchannelsUsed:vector ETV
attr source subchannelsUsed
attr title "Number of Subchannels used for the received packet, vector"
vector 200 Highway.car[2].lteNic.phy txRxDistanceTB:vector ETV
attr source txRxDistanceTB
attr title "Distance between transmitter and receiver, vector"
vector 201 Highway.car[2].lteNic.phy tbReceived:vector ETV
attr source tbReceived
attr title "Number of tb received, vector"
vector 202 Highway.car[2].lteNic.phy tbDecoded:vector ETV
attr source tbDecoded
attr title "Number of tb Decoded, vector"
vector 203 Highway.car[2].lteNic.phy tbFailedDueToNoSCI:vector ETV
attr source tbFailedDueToNoSCI
attr title "Number of tb not decoded due to no SCI, vector"
vector 204 Highway.car[2].lteNic.phy tbFailedDueToProp:vector ETV
attr source tbFailedDueToProp
attr title "Number of failed TBs due to propogation, vector"
vector 205 Highway.car[2].lteNic.phy tbFailedDueToInterference:vector ETV
attr source tbFailedDueToInterference
attr title "Number of failed TBs due to interference, vector"
vector 206 Highway.car[2].lteNic.phy tbFailedButSCIReceived:vector ETV
attr source tbFailedButSCIReceived
attr title "Number of failed TBs with a decoded SCI, vector"
vector 207 Highway.car[2].lteNic.phy tbFailedHalfDuplex:vector ETV
attr source tbFailedHalfDuplex
attr title "Number of failed TBs due to Half Duplex, vector"
vector 208 Highway.car[2].lteNic.phy periodic:vector ETV
attr source periodic
attr title "Identifies traffic as periodic or aperiodic, vector"
vector 209 Highway.car[2].lteNic.phy tbFailedDueToPropIgnoreSCI:vector ETV
attr source tbFailedDueToPropIgnoreSCI
attr title "Number of failed TBs due to propogation, vector"
vector 210 Highway.car[2].lteNic.phy tbFailedDueToInterferenceIgnoreSCI:vector ETV
attr source tbFailedDueToInterferenceIgnoreSCI
attr title "Number of failed TBs due to interference, vector"
vector 211 Highway.car[2].lteNic.phy tbDecodedIgnoreSCI:vector ETV
attr source tbDecodedIgnoreSCI
attr title "Number of failed TBs due to interference, vector"
vector 212 Highway.car[2].lteNic.mac receivedPacketFromLowerLayer:vector(packetBytes) ETV
attr interpolationmode none
attr source receivedPacketFromLowerLayer
vector 213 Highway.car[3].lteNic.phy txRxDistanceSCI:vector ETV
attr source txRxDistanceSCI
attr title "Distance between transmitter and receiver, vector"
vector 214 Highway.car[3].lteNic.phy senderID:vector ETV
attr source senderID
attr title "ID of node who sent message, vector"
vector 215 Highway.car[3].lteNic.phy sciReceived:vector ETV
attr source sciReceived
attr title "Number of received sci, vector"
vector 216 Highway.car[3].lteNic.phy sciUnsensed:vector ETV
attr source sciUnsensed
attr title "Number of failed SCIs due to RSRP below threshold, vector"
vector 217 Highway.car[3].lteNic.phy sciDecoded:vector ETV
attr source sciDecoded
attr title "Number of sci successfully decoded, vector"
vector 218 Highway.car[3].lteNic.phy sciFailedDueToProp:vector ETV
attr source sciFailedDueToProp
attr title "Number of failed SCIs due to propogation, vector"
vector 219 Highway.car[3].lteNic.phy sciFailedDueToInterference:vector ETV
attr source sciFailedDueToInterference
attr title "Number of failed SCIs due to interference, vector"
vector 220 Highway.car[3].lteNic.phy sciFailedHalfDuplex:vector ETV
attr source sciFailedHalfDuplex
attr title "Number of failed SCIs due to Half Duplex, vector"
vector 221 Highway.car[3].lteNic.phy subchannelReceived:vector ETV
attr source subchannelReceived
attr title "Initial Subchannel on which packet is received, vector"
vector 222 Highway.car[3].lteNic.phy subchannelsUsed:vector ETV
attr source subchannelsUsed
attr title "Number of Subchannels used for the received packet, vector"
vector 223 Highway.car[3].lteNic.phy txRxDistanceTB:vector ETV
attr source txRxDistanceTB
attr title "Distance between transmitter and receiver, vector"
vector 224 Highway.car[3].lteNic.phy tbReceived:vector ETV
attr source tbReceived
attr title "Number of tb received, vector"
vector 225 Highway.car[3].lteNic.phy tbDecoded:vector ETV
attr source tbDecoded
attr title "Number of tb Decoded, vector"
vector 226 Highway.car[3].lteNic.phy tbFailedDueToNoSCI:vector ETV
attr source tbFailedDueToNoSCI
attr title "Number of tb not decoded due to no SCI, vector"
vector 227 Highway.car[3].lteNic.phy tbFailedDueToProp:vector ETV
attr source tbFailedDueToProp
attr title "Number of failed TBs due to propogation, vector"
vector 228 Highway.car[3].lteNic.phy tbFailedDueToInterference:vector ETV
attr source tbFailedDueToInterference
attr title "Number of failed TBs due to interference, vector"
vector 229 Highway.car[3].lteNic.phy tbFailedButSCIReceived:vector ETV
attr source tbFailedButSCIReceived
attr title "Number of failed TBs with a decoded SCI, vector"
vector 230 Highway.car[3].lteNic.phy tbFailedHalfDuplex:vector ETV
attr source tbFailedHalfDuplex
attr title "Number of failed TBs due to Half Duplex, vector"
vector 231 Highway.car[3].lteNic.phy periodic:vector ETV
attr source periodic
attr title "Identifies traffic as periodic or aperiodic, vector"
vector 232 Highway.car[3].lteNic.phy tbFailedDueToPropIgnoreSCI:vector ETV
attr source tbFailedDueToPropIgnoreSCI
attr title "Number of failed TBs due to propogation, vector"
vector 233 Highway.car[3].lteNic.phy tbFailedDueToInterferenceIgnoreSCI:vector ETV
attr source tbFailedDueToInterferenceIgnoreSCI
attr title "Number of failed TBs due to interference, vector"
vector 234 Highway.car[3].lteNic.phy tbDecodedIgnoreSCI:vector ETV
attr source tbDecodedIgnoreSCI
attr title "Number of failed TBs due to interference, vector"
vector 235 Highway.car[3].lteNic.mac receivedPacketFromLowerLayer:vector(packetBytes) ETV
attr interpolationmode none
attr source receivedPacketFromLowerLayer
vector 236 Highway.car[4].lteNic.phy txRxDistanceSCI:vector ETV
attr source txRxDistanceSCI
attr title "Distance between transmitter and receiver, vector"
vector 237 Highway.car[4].lteNic.phy senderID:vector ETV
attr source senderID
attr title "ID of node who sent message, vector"
vector 238 Highway.car[4].lteNic.phy sciReceived:vector ETV
attr source sciReceived
attr title "Number of received sci, vector"
vector 239 Highway.car[4].lteNic.phy sciUnsensed:vector ETV
attr source sciUnsensed
attr title "Number of failed SCIs due to RSRP below threshold, vector"
vector 240 Highway.car[4].lteNic.phy sciDecoded:vector ETV
attr source sciDecoded
attr title "Number of sci successfully decoded, vector"
vector 241 Highway.car[4].lteNic.phy sciFailedDueToProp:vector ETV
attr source sciFailedDueToProp
attr title "Number of failed SCIs due to propogation, vector"
vector 242 Highway.car[4].lteNic.phy sciFailedDueToInterference:vector ETV
attr source sciFailedDueToInterference
attr title "Number of failed SCIs due to interference, vector"
vector 243 Highway.car[4].lteNic.phy sciFailedHalfDuplex:vector ETV
attr source sciFailedHalfDuplex
attr title "Number of failed SCIs due to Half Duplex, vector"
vector 244 Highway.car[4].lteNic.phy subchannelReceived:vector ETV
attr source subchannelReceived
attr title "Initial Subchannel on which packet is received, vector"
vector 245 Highway.car[4].lteNic.phy subchannelsUsed:vector ETV
attr source subchannelsUsed
attr title "Number of Subchannels used for the received packet, vector"
vector 246 Highway.car[4].lteNic.phy txRxDistanceTB:vector ETV
attr source txRxDistanceTB
attr title "Distance between transmitter and receiver, vector"
vector 247 Highway.car[4].lteNic.phy tbReceived:vector ETV
attr source tbReceived
attr title "Number of tb received, vector"
vector 248 Highway.car[4].lteNic.phy tbDecoded:vector ETV
attr source tbDecoded
attr title "Number of tb Decoded, vector"
vector 249 Highway.car[4].lteNic.phy tbFailedDueToNoSCI:vector ETV
attr source tbFailedDueToNoSCI
attr title "Number of tb not decoded due to no SCI, vector"
vector 250 Highway.car[4].lteNic.phy tbFailedDueToProp:vector ETV
attr source tbFailedDueToProp
attr title "Number of failed TBs due to propogation, vector"
vector 251 Highway.car[4].lteNic.phy tbFailedDueToInterference:vector ETV
attr source tbFailedDueToInterference
attr title "Number of failed TBs due to interference, vector"
vector 252 Highway.car[4].lteNic.phy tbFailedButSCIReceived:vector ETV
attr source tbFailedButSCIReceived
attr title "Number of failed TBs with a decoded SCI, vector"
vector 253 Highway.car[4].lteNic.phy tbFailedHalfDuplex:vector ETV
attr source tbFailedHalfDuplex
attr title "Number of failed TBs due to Half Duplex, vector"
vector 254 Highway.car[4].lteNic.phy periodic:vector ETV
attr source periodic
attr title "Identifies traffic as periodic or aperiodic, vector"
vector 255 Highway.car[4].lteNic.phy tbFailedDueToPropIgnoreSCI:vector ETV
attr source tbFailedDueToPropIgnoreSCI
attr title "Number of failed TBs due to propogation, vector"
vector 256 Highway.car[4].lteNic.phy tbFailedDueToInterferenceIgnoreSCI:vector ETV
attr source tbFailedDueToInterferenceIgnoreSCI
attr title "Number of failed TBs due to interference, vector"
vector 257 Highway.car[4].lteNic.phy tbDecodedIgnoreSCI:vector ETV
attr source tbDecodedIgnoreSCI
attr title "Number of failed TBs due to interference, vector"
vector 258 Highway.car[4].lteNic.mac receivedPacketFromLowerLayer:vector(packetBytes) ETV
attr interpolationmode none
attr source receivedPacketFromLowerLayer
vector 259 Highway.car[5].lteNic.phy txRxDistanceSCI:vector ETV
attr source txRxDistanceSCI
attr title "Distance between transmitter and receiver, vector"
vector 260 Highway.car[5].lteNic.phy senderID:vector ETV
attr source senderID
attr title "ID of node who sent message, vector"
vector 261 Highway.car[5].lteNic.phy sciReceived:vector ETV
attr source sciReceived
attr title "Number of received sci, vector"
vector 262 Highway.car[5].lteNic.phy sciUnsensed:vector ETV
attr source sciUnsensed
attr title "Number of failed SCIs due to RSRP below threshold, vector"
vector 263 Highway.car[5].lteNic.phy sciDecoded:vector ETV
attr source sciDecoded
attr title "Number of sci successfully decoded, vector"
vector 264 Highway.car[5].lteNic.phy sciFailedDueToProp:vector ETV
attr source sciFailedDueToProp
attr title "Number of failed SCIs due to propogation, vector"
vector 265 Highway.car[5].lteNic.phy sciFailedDueToInterference:vector ETV
attr source sciFailedDueToInterference
attr title "Number of failed SCIs due to interference, vector"
vector 266 Highway.car[5].lteNic.phy sciFailedHalfDuplex:vector ETV
attr source sciFailedHalfDuplex
attr title "Number of failed SCIs due to Half Duplex, vector"
vector 267 Highway.car[5].lteNic.phy subchannelReceived:vector ETV
attr source subchannelReceived
attr title "Initial Subchannel on which packet is received, vector"
vector 268 Highway.car[5].lteNic.phy subchannelsUsed:vector ETV
attr source subchannelsUsed
attr title "Number of Subchannels used for the received packet, vector"
vector 269 Highway.car[5].lteNic.phy txRxDistanceTB:vector ETV
attr source txRxDistanceTB
attr title "Distance between transmitter and receiver, vector"
vector 270 Highway.car[5].lteNic.phy tbReceived:vector ETV
attr source tbReceived
attr title "Number of tb received, vector"
vector 271 Highway.car[5].lteNic.phy tbDecoded:vector ETV
attr source tbDecoded
attr title "Number of tb Decoded, vector"
vector 272 Highway.car[5].lteNic.phy tbFailedDueToNoSCI:vector ETV
attr source tbFailedDueToNoSCI
attr title "Number of tb not decoded due to no SCI, vector"
vector 273 Highway.car[5].lteNic.phy tbFailedDueToProp:vector ETV
attr source tbFailedDueToProp
attr title "Number of failed TBs due to propogation, vector"
vector 274 Highway.car[5].lteNic.phy tbFailedDueToInterference:vector ETV
attr source tbFailedDueToInterference
attr title "Number of failed TBs due to interference, vector"
vector 275 Highway.car[5].lteNic.phy tbFailedButSCIReceived:vector ETV
attr source tbFailedButSCIReceived
attr title "Number of failed TBs with a decoded SCI, vector"
vector 276 Highway.car[5].lteNic.phy tbFailedHalfDuplex:vector ETV
attr source tbFailedHalfDuplex
attr title "Number of failed TBs due to Half Duplex, vector"
vector 277 Highway.car[5].lteNic.phy periodic:vector ETV
attr source periodic
attr title "Identifies traffic as periodic or aperiodic, vector"
vector 278 Highway.car[5].lteNic.phy tbFailedDueToPropIgnoreSCI:vector ETV
attr source tbFailedDueToPropIgnoreSCI
attr title "Number of failed TBs due to propogation, vector"
vector 279 Highway.car[5].lteNic.phy tbFailedDueToInterferenceIgnoreSCI:vector ETV
attr source tbFailedDueToInterferenceIgnoreSCI
attr title "Number of failed TBs due to interference, vector"
vector 280 Highway.car[5].lteNic.phy tbDecodedIgnoreSCI:vector ETV
attr source tbDecodedIgnoreSCI
attr title "Number of failed TBs due to interference, vector"
vector 281 Highway.car[5].lteNic.mac receivedPacketFromLowerLayer:vector(packetBytes) ETV
attr interpolationmode none
attr source receivedPacketFromLowerLayer
vector 282 Highway.car[6].lteNic.phy txRxDistanceSCI:vector ETV
attr source txRxDistanceSCI
attr title "Distance between transmitter and receiver, vector"
vector 283 Highway.car[6].lteNic.phy senderID:vector ETV
attr source senderID
attr title "ID of node who sent message, vector"
vector 284 Highway.car[6].lteNic.phy sciReceived:vector ETV
attr source sciReceived
attr title "Number of received sci, vector"
vector 285 Highway.car[6].lteNic.phy sciUnsensed:vector ETV
attr source sciUnsensed
attr title "Number of failed SCIs due to RSRP below threshold, vector"
vector 286 Highway.car[6].lteNic.phy sciDecoded:vector ETV
attr source sciDecoded
attr title "Number of sci successfully decoded, vector"
vector 287 Highway.car[6].lteNic.phy sciFailedDueToProp:vector ETV
attr source sciFailedDueToProp
attr title "Number of failed SCIs due to propogation, vector"
vector 288 Highway.car[6].lteNic.phy sciFailedDueToInterference:vector ETV
attr source sciFailedDueToInterference
attr title "Number of failed SCIs due to interference, vector"
vector 289 Highway.car[6].lteNic.phy sciFailedHalfDuplex:vector ETV
attr source sciFailedHalfDuplex
attr title "Number of failed SCIs due to Half Duplex, vector"
vector 290 Highway.car[6].lteNic.phy subchannelReceived:vector ETV
attr source subchannelReceived
attr title "Initial Subchannel on which packet is received, vector"
vector 291 Highway.car[6].lteNic.phy subchannelsUsed:vector ETV
attr source subchannelsUsed
attr title "Number of Subchannels used for the received packet, vector"
vector 292 Highway.car[6].lteNic.phy txRxDistanceTB:vector ETV
attr source txRxDistanceTB
attr title "Distance between transmitter and receiver, vector"
vector 293 Highway.car[6].lteNic.phy tbReceived:vector ETV
attr source tbReceived
attr title "Number of tb received, vector"
vector 294 Highway.car[6].lteNic.phy tbDecoded:vector ETV
attr source tbDecoded
attr title "Number of tb Decoded, vector"
vector 295 Highway.car[6].lteNic.phy tbFailedDueToNoSCI:vector ETV
attr source tbFailedDueToNoSCI
attr title "Number of tb not decoded due to no SCI, vector"
vector 296 Highway.car[6].lteNic.phy tbFailedDueToProp:vector ETV
attr source tbFailedDueToProp
attr title "Number of failed TBs due to propogation, vector"
vector 297 Highway.car[6].lteNic.phy tbFailedDueToInterference:vector ETV
attr source tbFailedDueToInterference
attr title "Number of failed TBs due to interference, vector"
vector 298 Highway.car[6].lteNic.phy tbFailedButSCIReceived:vector ETV
attr source tbFailedButSCIReceived
attr title "Number of failed TBs with a decoded SCI, vector"
vector 299 Highway.car[6].lteNic.phy tbFailedHalfDuplex:vector ETV
attr source tbFailedHalfDuplex
attr title "Number of failed TBs due to Half Duplex, vector"
vector 300 Highway.car[6].lteNic.phy periodic:vector ETV
attr source periodic
attr title "Identifies traffic as periodic or aperiodic, vector"
vector 301 Highway.car[6].lteNic.phy tbFailedDueToPropIgnoreSCI:vector ETV
attr source tbFailedDueToPropIgnoreSCI
attr title "Number of failed TBs due to propogation, vector"
vector 302 Highway.car[6].lteNic.phy tbFailedDueToInterferenceIgnoreSCI:vector ETV
attr source tbFailedDueToInterferenceIgnoreSCI
attr title "Number of failed TBs due to interference, vector"
vector 303 Highway.car[6].lteNic.phy tbDecodedIgnoreSCI:vector ETV
attr source tbDecodedIgnoreSCI
attr title "Number of failed TBs due to interference, vector"
vector 304 Highway.car[6].lteNic.mac receivedPacketFromLowerLayer:vector(packetBytes) ETV
attr interpolationmode none
attr source receivedPacketFromLowerLayer
vector 305 Highway.car[7].lteNic.phy txRxDistanceSCI:vector ETV
attr source txRxDistanceSCI
attr title "Distance between transmitter and receiver, vector"
vector 306 Highway.car[7].lteNic.phy senderID:vector ETV
attr source senderID
attr title "ID of node who sent message, vector"
vector 307 Highway.car[7].lteNic.phy sciReceived:vector ETV
attr source sciReceived
attr title "Number of received sci, vector"
vector 308 Highway.car[7].lteNic.phy sciUnsensed:vector ETV
attr source sciUnsensed
attr title "Number of failed SCIs due to RSRP below threshold, vector"
vector 309 Highway.car[7].lteNic.phy sciDecoded:vector ETV
attr source sciDecoded
attr title "Number of sci successfully decoded, vector"
vector 310 Highway.car[7].lteNic.phy sciFailedDueToProp:vector ETV
attr source sciFailedDueToProp
attr title "Number of failed SCIs due to propogation, vector"
vector 311 Highway.car[7].lteNic.phy sciFailedDueToInterference:vector ETV
attr source sciFailedDueToInterference
attr title "Number of failed SCIs due to interference, vector"
vector 312 Highway.car[7].lteNic.phy sciFailedHalfDuplex:vector ETV
attr source sciFailedHalfDuplex
attr title "Number of failed SCIs due to Half Duplex, vector"
vector 313 Highway.car[7].lteNic.phy subchannelReceived:vector ETV
attr source subchannelReceived
attr title "Initial Subchannel on which packet is received, vector"
vector 314 Highway.car[7].lteNic.phy subchannelsUsed:vector ETV
attr source subchannelsUsed
attr title "Number of Subchannels used for the received packet, vector"
vector 315 Highway.car[7].lteNic.phy txRxDistanceTB:vector ETV
attr source txRxDistanceTB
attr title "Distance between transmitter and receiver, vector"
vector 316 Highway.car[7].lteNic.phy tbReceived:vector ETV
attr source tbReceived
attr title "Number of tb received, vector"
vector 317 Highway.car[7].lteNic.phy tbDecoded:vector ETV
attr source tbDecoded
attr title "Number of tb Decoded, vector"
vector 318 Highway.car[7].lteNic.phy tbFailedDueToNoSCI:vector ETV
attr source tbFailedDueToNoSCI
attr title "Number of tb not decoded due to no SCI, vector"
vector 319 Highway.car[7].lteNic.phy tbFailedDueToProp:vector ETV
attr source tbFailedDueToProp
attr title "Number of failed TBs due to propogation, vector"
vector 320 Highway.car[7].lteNic.phy tbFailedDueToInterference:vector ETV
attr source tbFailedDueToInterference
attr title "Number of failed TBs due to interference, vector"
vector 321 Highway.car[7].lteNic.phy tbFailedButSCIReceived:vector ETV
attr source tbFailedButSCIReceived
attr title "Number of failed TBs with a decoded SCI, vector"
vector 322 Highway.car[7].lteNic.phy tbFailedHalfDuplex:vector ETV
attr source tbFailedHalfDuplex
attr title "Number of failed TBs due to Half Duplex, vector"
vector 323 Highway.car[7].lteNic.phy periodic:vector ETV
attr source periodic
attr title "Identifies traffic as periodic or aperiodic, vector"
vector 324 Highway.car[7].lteNic.phy tbFailedDueToPropIgnoreSCI:vector ETV
attr source tbFailedDueToPropIgnoreSCI
attr title "Number of failed TBs due to propogation, vector"
vector 325 Highway.car[7].lteNic.phy tbFailedDueToInterferenceIgnoreSCI:vector ETV
attr source tbFailedDueToInterferenceIgnoreSCI
attr title "Number of failed TBs due to interference, vector"
vector 326 Highway.car[7].lteNic.phy tbDecodedIgnoreSCI:vector ETV
attr source tbDecodedIgnoreSCI
attr title "Number of failed TBs due to interference, vector"
vector 327 Highway.car[7].lteNic.mac receivedPacketFromLowerLayer:vector(packetBytes) ETV
attr interpolationmode none
attr source receivedPacketFromLowerLayer
vector 328 Highway.car[8].lteNic.phy txRxDistanceSCI:vector ETV
attr source txRxDistanceSCI
attr title "Distance between transmitter and receiver, vector"
vector 329 Highway.car[8].lteNic.phy senderID:vector ETV
attr source senderID
attr title "ID of node who sent message, vector"
vector 330 Highway.car[8].lteNic.phy sciReceived:vector ETV
attr source sciReceived
attr title "Number of received sci, vector"
vector 331 Highway.car[8].lteNic.phy sciUnsensed:vector ETV
attr source sciUnsensed
attr title "Number of failed SCIs due to RSRP below threshold, vector"
vector 332 Highway.car[8].lteNic.phy sciDecoded:vector ETV
attr source sciDecoded
attr title "Number of sci successfully decoded, vector"
vector 333 Highway.car[8].lteNic.phy sciFailedDueToProp:vector ETV
attr source sciFailedDueToProp
attr title "Number of failed SCIs due to propogation, vector"
vector 334 Highway.car[8].lteNic.phy sciFailedDueToInterference:vector ETV
attr source sciFailedDueToInterference
attr title "Number of failed SCIs due to interference, vector"
vector 335 Highway.car[8].lteNic.phy sciFailedHalfDuplex:vector ETV
attr source sciFailedHalfDuplex
attr title "Number of failed SCIs due to Half Duplex, vector"
vector 336 Highway.car[8].lteNic.phy subchannelReceived:vector ETV
attr source subchannelReceived
attr title "Initial Subchannel on which packet is received, vector"
vector 337 Highway.car[8].lteNic.phy subchannelsUsed:vector ETV
attr source subchannelsUsed
attr title "Number of Subchannels used for the received packet, vector"
vector 338 Highway.car[8].lteNic.phy txRxDistanceTB:vector ETV
attr source txRxDistanceTB
attr title "Distance between transmitter and receiver, vector"
vector 339 Highway.car[8].lteNic.phy tbReceived:vector ETV
attr source tbReceived
attr title "Number of tb received, vector"
vector 340 Highway.car[8].lteNic.phy tbDecoded:vector ETV
attr source tbDecoded
attr title "Number of tb Decoded, vector"
vector 341 Highway.car[8].lteNic.phy tbFailedDueToNoSCI:vector ETV
attr source tbFailedDueToNoSCI
attr title "Number of tb not decoded due to no SCI, vector"
vector 342 Highway.car[8].lteNic.phy tbFailedDueToProp:vector ETV
attr source tbFailedDueToProp
attr title "Number of failed TBs due to propogation, vector"
vector 343 Highway.car[8].lteNic.phy tbFailedDueToInterference:vector ETV
attr source tbFailedDueToInterference
attr title "Number of failed TBs due to interference, vector"
vector 344 Highway.car[8].lteNic.phy tbFailedButSCIReceived:vector ETV
attr source tbFailedButSCIReceived
attr title "Number of failed TBs with a decoded SCI, vector"
vector 345 Highway.car[8].lteNic.phy tbFailedHalfDuplex:vector ETV
attr source tbFailedHalfDuplex
attr title "Number of failed TBs due to Half Duplex, vector"
vector 346 Highway.car[8].lteNic.phy periodic:vector ETV
attr source periodic
attr title "Identifies traffic as periodic or aperiodic, vector"
vector 347 Highway.car[8].lteNic.phy tbFailedDueToPropIgnoreSCI:vector ETV
attr source tbFailedDueToPropIgnoreSCI
attr title "Number of failed TBs due to propogation, vector"
vector 348 Highway.car[8].lteNic.phy tbFailedDueToInterferenceIgnoreSCI:vector ETV
attr source tbFailedDueToInterferenceIgnoreSCI
attr title "Number of failed TBs due to interference, vector"
vector 349 Highway.car[8].lteNic.phy tbDecodedIgnoreSCI:vector ETV
attr source tbDecodedIgnoreSCI
attr title "Number of failed TBs due to interference, vector"
vector 350 Highway.car[8].lteNic.mac receivedPacketFromLowerLayer:vector(packetBytes) ETV
attr interpolationmode none
attr source receivedPacketFromLowerLayer
vector 351 Highway.car[9].lteNic.phy txRxDistanceSCI:vector ETV
attr source txRxDistanceSCI
attr title "Distance between transmitter and receiver, vector"
vector 352 Highway.car[9].lteNic.phy senderID:vector ETV
attr source senderID
attr title "ID of node who sent message, vector"
vector 353 Highway.car[9].lteNic.phy sciReceived:vector ETV
attr source sciReceived
attr title "Number of received sci, vector"
vector 354 Highway.car[9].lteNic.phy sciUnsensed:vector ETV
attr source sciUnsensed
attr title "Number of failed SCIs due to RSRP below threshold, vector"
vector 355 Highway.car[9].lteNic.phy sciDecoded:vector ETV
attr source sciDecoded
attr title "Number of sci successfully decoded, vector"
vector 356 Highway.car[9].lteNic.phy sciFailedDueToProp:vector ETV
attr source sciFailedDueToProp
attr title "Number of failed SCIs due to propogation, vector"
vector 357 Highway.car[9].lteNic.phy sciFailedDueToInterference:vector ETV
attr source sciFailedDueToInterference
attr title "Number of failed SCIs due to interference, vector"
vector 358 Highway.car[9].lteNic.phy sciFailedHalfDuplex:vector ETV
attr source sciFailedHalfDuplex
attr title "Number of failed SCIs due to Half Duplex, vector"
vector 359 Highway.car[9].lteNic.phy subchannelReceived:vector ETV
attr source subchannelReceived
attr title "Initial Subchannel on which packet is received, vector"
vector 360 Highway.car[9].lteNic.phy subchannelsUsed:vector ETV
attr source subchannelsUsed
attr title "Number of Subchannels used for the received packet, vector"
vector 361 Highway.car[9].lteNic.phy txRxDistanceTB:vector ETV
attr source txRxDistanceTB
attr title "Distance between transmitter and receiver, vector"
vector 362 Highway.car[9].lteNic.phy tbReceived:vector ETV
attr source tbReceived
attr title "Number of tb received, vector"
vector 363 Highway.car[9].lteNic.phy tbDecoded:vector ETV
attr source tbDecoded
attr title "Number of tb Decoded, vector"
vector 364 Highway.car[9].lteNic.phy tbFailedDueToNoSCI:vector ETV
attr source tbFailedDueToNoSCI
attr title "Number of tb not decoded due to no SCI, vector"
vector 365 Highway.car[9].lteNic.phy tbFailedDueToProp:vector ETV
attr source tbFailedDueToProp
attr title "Number of failed TBs due to propogation, vector"
vector 366 Highway.car[9].lteNic.phy tbFailedDueToInterference:vector ETV
attr source tbFailedDueToInterference
attr title "Number of failed TBs due to interference, vector"
vector 367 Highway.car[9].lteNic.phy tbFailedButSCIReceived:vector ETV
attr source tbFailedButSCIReceived
attr title "Number of failed TBs with a decoded SCI, vector"
vector 368 Highway.car[9].lteNic.phy tbFailedHalfDuplex:vector ETV
attr source tbFailedHalfDuplex
attr title "Number of failed TBs due to Half Duplex, vector"
vector 369 Highway.car[9].lteNic.phy periodic:vector ETV
attr source periodic
attr title "Identifies traffic as periodic or aperiodic, vector"
vector 370 Highway.car[9].lteNic.phy tbFailedDueToPropIgnoreSCI:vector ETV
attr source tbFailedDueToPropIgnoreSCI
attr title "Number of failed TBs due to propogation, vector"
vector 371 Highway.car[9].lteNic.phy tbFailedDueToInterferenceIgnoreSCI:vector ETV
attr source tbFailedDueToInterferenceIgnoreSCI
attr title "Number of failed TBs due to interference, vector"
vector 372 Highway.car[9].lteNic.phy tbDecodedIgnoreSCI:vector ETV
attr source tbDecodedIgnoreSCI
attr title "Number of failed TBs due to interference, vector"
vector 373 Highway.car[9].lteNic.mac receivedPacketFromLowerLayer:vector(packetBytes) ETV
attr interpolationmode none
attr source receivedPacketFromLowerLayer
vector 374 Highway.car[10].lteNic.phy txRxDistanceSCI:vector ETV
attr source txRxDistanceSCI
attr title "Distance between transmitter and receiver, vector"
vector 375 Highway.car[10].lteNic.phy senderID:vector ETV
attr source senderID
attr title "ID of node who sent message, vector"
vector 376 Highway.car[10].lteNic.phy sciReceived:vector ETV
attr source sciReceived
attr title "Number of received sci, vector"
vector 377 Highway.car[10].lteNic.phy sciUnsensed:vector ETV
attr source sciUnsensed
attr title "Number of failed SCIs due to RSRP below threshold, vector"
vector 378 Highway.car[10].lteNic.phy sciDecoded:vector ETV
attr source sciDecoded
attr title "Number of sci successfully decoded, vector"
vector 379 Highway.car[10].lteNic.phy sciFailedDueToProp:vector ETV
attr source sciFailedDueToProp
attr title "Number of failed SCIs due to propogation, vector"
vector 380 Highway.car[10].lteNic.phy sciFailedDueToInterference:vector ETV
attr source sciFailedDueToInterference
attr title "Number of failed SCIs due to interference, vector"
vector 381 Highway.car[10].lteNic.phy sciFailedHalfDuplex:vector ETV
attr source sciFailedHalfDuplex
attr title "Number of failed SCIs due to Half Duplex, vector"
vector 382 Highway.car[10].lteNic.phy subchannelReceived:vector ETV
attr source subchannelReceived
attr title "Initial Subchannel on which packet is received, vector"
vector 383 Highway.car[10].lteNic.phy subchannelsUsed:vector ETV
attr source subchannelsUsed
attr title "Number of Subchannels used for the received packet, vector"
vector 384 Highway.car[10].lteNic.phy txRxDistanceTB:vector ETV
attr source txRxDistanceTB
attr title "Distance between transmitter and receiver, vector"
vector 385 Highway.car[10].lteNic.phy tbReceived:vector ETV
attr source tbReceived
attr title "Number of tb received, vector"
vector 386 Highway.car[10].lteNic.phy tbDecoded:vector ETV
attr source tbDecoded
attr title "Number of tb Decoded, vector"
vector 387 Highway.car[10].lteNic.phy tbFailedDueToNoSCI:vector ETV
attr source tbFailedDueToNoSCI
attr title "Number of tb not decoded due to no SCI, vector"
vector 388 Highway.car[10].lteNic.phy tbFailedDueToProp:vector ETV
attr source tbFailedDueToProp
attr title "Number of failed TBs due to propogation, vector"
vector 389 Highway.car[10].lteNic.phy tbFailedDueToInterference:vector ETV
attr source tbFailedDueToInterference
attr title "Number of failed TBs due to interference, vector"
vector 390 Highway.car[10].lteNic.phy tbFailedButSCIReceived:vector ETV
attr source tbFailedButSCIReceived
attr title "Number of failed TBs with a decoded SCI, vector"
vector 391 Highway.car[10].lteNic.phy tbFailedHalfDuplex:vector ETV
attr source tbFailedHalfDuplex
attr title "Number of failed TBs due to Half Duplex, vector"
vector 392 Highway.car[10].lteNic.phy periodic:vector ETV
attr source periodic
attr title "Identifies traffic as periodic or aperiodic, vector"
vector 393 Highway.car[10].lteNic.phy tbFailedDueToPropIgnoreSCI:vector ETV
attr source tbFailedDueToPropIgnoreSCI
attr title "Number of failed TBs due to propogation, vector"
vector 394 Highway.car[10].lteNic.phy tbFailedDueToInterferenceIgnoreSCI:vector ETV
attr source tbFailedDueToInterferenceIgnoreSCI
attr title "Number of failed TBs due to interference, vector"
vector 395 Highway.car[10].lteNic.phy tbDecodedIgnoreSCI:vector ETV
attr source tbDecodedIgnoreSCI
attr title "Number of failed TBs due to interference, vector"
vector 396 Highway.car[10].lteNic.mac receivedPacketFromLowerLayer:vector(packetBytes) ETV
attr interpolationmode none
attr source receivedPacketFromLowerLayer
vector 397 Highway.car[11].lteNic.phy txRxDistanceSCI:vector ETV
attr source txRxDistanceSCI
attr title "Distance between transmitter and receiver, vector"
vector 398 Highway.car[11].lteNic.phy senderID:vector ETV
attr source senderID
attr title "ID of node who sent message, vector"
vector 399 Highway.car[11].lteNic.phy sciReceived:vector ETV
attr source sciReceived
attr title "Number of received sci, vector"
vector 400 Highway.car[11].lteNic.phy sciUnsensed:vector ETV
attr source sciUnsensed
attr title "Number of failed SCIs due to RSRP below threshold, vector"
vector 401 Highway.car[11].lteNic.phy sciDecoded:vector ETV
attr source sciDecoded
attr title "Number of sci successfully decoded, vector"
vector 402 Highway.car[11].lteNic.phy sciFailedDueToProp:vector ETV
attr source sciFailedDueToProp
attr title "Number of failed SCIs due to propogation, vector"
vector 403 Highway.car[11].lteNic.phy sciFailedDueToInterference:vector ETV
attr source sciFailedDueToInterference
attr title "Number of failed SCIs due to interference, vector"
vector 404 Highway.car[11].lteNic.phy sciFailedHalfDuplex:vector ETV
attr source sciFailedHalfDuplex
attr title "Number of failed SCIs due to Half Duplex, vector"
vector 405 Highway.car[11].lteNic.phy subchannelReceived:vector ETV
attr source subchannelReceived
attr title "Initial Subchannel on which packet is received, vector"
vector 406 Highway.car[11].lteNic.phy subchannelsUsed:vector ETV
attr source subchannelsUsed
attr title "Number of Subchannels used for the received packet, vector"
vector 407 Highway.car[11].lteNic.phy txRxDistanceTB:vector ETV
attr source txRxDistanceTB
attr title "Distance between transmitter and receiver, vector"
vector 408 Highway.car[11].lteNic.phy tbReceived:vector ETV
attr source tbReceived
attr title "Number of tb received, vector"
vector 409 Highway.car[11].lteNic.phy tbDecoded:vector ETV
attr source tbDecoded
attr title "Number of tb Decoded, vector"
vector 410 Highway.car[11].lteNic.phy tbFailedDueToNoSCI:vector ETV
attr source tbFailedDueToNoSCI
attr title "Number of tb not decoded due to no SCI, vector"
vector 411 Highway.car[11].lteNic.phy tbFailedDueToProp:vector ETV
attr source tbFailedDueToProp
attr title "Number of failed TBs due to propogation, vector"
vector 412 Highway.car[11].lteNic.phy tbFailedDueToInterference:vector ETV
attr source tbFailedDueToInterference
attr title "Number of failed TBs due to interference, vector"
vector 413 Highway.car[11].lteNic.phy tbFailedButSCIReceived:vector ETV
attr source tbFailedButSCIReceived
attr title "Number of failed TBs with a decoded SCI, vector"
vector 414 Highway.car[11].lteNic.phy tbFailedHalfDuplex:vector ETV
attr source tbFailedHalfDuplex
attr title "Number of failed TBs due to Half Duplex, vector"
vector 415 Highway.car[11].lteNic.phy periodic:vector ETV
attr source periodic
attr title "Identifies traffic as periodic or aperiodic, vector"
vector 416 Highway.car[11].lteNic.phy tbFailedDueToPropIgnoreSCI:vector ETV
attr source tbFailedDueToPropIgnoreSCI
attr title "Number of failed TBs due to propogation, vector"
vector 417 Highway.car[11].lteNic.phy tbFailedDueToInterferenceIgnoreSCI:vector ETV
attr source tbFailedDueToInterferenceIgnoreSCI
attr title "Number of failed TBs due to interference, vector"
vector 418 Highway.car[11].lteNic.phy tbDecodedIgnoreSCI:vector ETV
attr source tbDecodedIgnoreSCI
attr title "Number of failed TBs due to interference, vector"
vector 419 Highway.car[11].lteNic.mac receivedPacketFromLowerLayer:vector(packetBytes) ETV
attr interpolationmode none
attr source receivedPacketFromLowerLayer
vector 420 Highway.car[12].lteNic.phy txRxDistanceSCI:vector ETV
attr source txRxDistanceSCI
attr title "Distance between transmitter and receiver, vector"
vector 421 Highway.car[12].lteNic.phy senderID:vector ETV
attr source senderID
attr title "ID of node who sent message, vector"
vector 422 Highway.car[12].lteNic.phy sciReceived:vector ETV
attr source sciReceived
attr title "Number of received sci, vector"
vector 423 Highway.car[12].lteNic.phy sciUnsensed:vector ETV
attr source sciUnsensed
attr title "Number of failed SCIs due to RSRP below threshold, vector"
vector 424 Highway.car[12].lteNic.phy sciDecoded:vector ETV
attr source sciDecoded
attr title "Number of sci successfully decoded, vector"
vector 425 Highway.car[12].lteNic.phy sciFailedDueToProp:vector ETV
attr source sciFailedDueToProp
attr title "Number of failed SCIs due to propogation, vector"
vector 426 Highway.car[12].lteNic.phy sciFailedDueToInterference:vector ETV
attr source sciFailedDueToInterference
attr title "Number of failed SCIs due to interference, vector"
vector 427 Highway.car[12].lteNic.phy sciFailedHalfDuplex:vector ETV
attr source sciFailedHalfDuplex
attr title "Number of failed SCIs due to Half Duplex, vector"
vector 428 Highway.car[12].lteNic.phy subchannelReceived:vector ETV
attr source subchannelReceived
attr title "Initial Subchannel on which packet is received, vector"
vector 429 Highway.car[12].lteNic.phy subchannelsUsed:vector ETV
attr source subchannelsUsed
attr title "Number of Subchannels used for the received packet, vector"
vector 430 Highway.car[12].lteNic.phy txRxDistanceTB:vector ETV
attr source txRxDistanceTB
attr title "Distance between transmitter and receiver, vector"
vector 431 Highway.car[12].lteNic.phy tbReceived:vector ETV
attr source tbReceived
attr title "Number of tb received, vector"
vector 432 Highway.car[12].lteNic.phy tbDecoded:vector ETV
attr source tbDecoded
attr title "Number of tb Decoded, vector"
vector 433 Highway.car[12].lteNic.phy tbFailedDueToNoSCI:vector ETV
attr source tbFailedDueToNoSCI
attr title "Number of tb not decoded due to no SCI, vector"
vector 434 Highway.car[12].lteNic.phy tbFailedDueToProp:vector ETV
attr source tbFailedDueToProp
attr title "Number of failed TBs due to propogation, vector"
vector 435 Highway.car[12].lteNic.phy tbFailedDueToInterference:vector ETV
attr source tbFailedDueToInterference
attr title "Number of failed TBs due to interference, vector"
vector 436 Highway.car[12].lteNic.phy tbFailedButSCIReceived:vector ETV
attr source tbFailedButSCIReceived
attr title "Number of failed TBs with a decoded SCI, vector"
vector 437 Highway.car[12].lteNic.phy tbFailedHalfDuplex:vector ETV
attr source tbFailedHalfDuplex
attr title "Number of failed TBs due to Half Duplex, vector"
vector 438 Highway.car[12].lteNic.phy periodic:vector ETV
attr source periodic
attr title "Identifies traffic as periodic or aperiodic, vector"
vector 439 Highway.car[12].lteNic.phy tbFailedDueToPropIgnoreSCI:vector ETV
attr source tbFailedDueToPropIgnoreSCI
attr title "Number of failed TBs due to propogation, vector"
vector 440 Highway.car[12].lteNic.phy tbFailedDueToInterferenceIgnoreSCI:vector ETV
attr source tbFailedDueToInterferenceIgnoreSCI
attr title "Number of failed TBs due to interference, vector"
vector 441 Highway.car[12].lteNic.phy tbDecodedIgnoreSCI:vector ETV
attr source tbDecodedIgnoreSCI
attr title "Number of failed TBs due to interference, vector"
vector 442 Highway.car[12].lteNic.mac receivedPacketFromLowerLayer:vector(packetBytes) ETV
attr interpolationmode none
attr source receivedPacketFromLowerLayer
vector 443 Highway.car[13].lteNic.phy txRxDistanceSCI:vector ETV
attr source txRxDistanceSCI
attr title "Distance between transmitter and receiver, vector"
vector 444 Highway.car[13].lteNic.phy senderID:vector ETV
attr source senderID
attr title "ID of node who sent message, vector"
vector 445 Highway.car[13].lteNic.phy sciReceived:vector ETV
attr source sciReceived
attr title "Number of received sci, vector"
vector 446 Highway.car[13].lteNic.phy sciUnsensed:vector ETV
attr source sciUnsensed
attr title "Number of failed SCIs due to RSRP below threshold, vector"
vector 447 Highway.car[13].lteNic.phy sciDecoded:vector ETV
attr source sciDecoded
attr title "Number of sci successfully decoded, vector"
vector 448 Highway.car[13].lteNic.phy sciFailedDueToProp:vector ETV
attr source sciFailedDueToProp
attr title "Number of failed SCIs due to propogation, vector"
vector 449 Highway.car[13].lteNic.phy sciFailedDueToInterference:vector ETV
attr source sciFailedDueToInterference
attr title "Number of failed SCIs due to interference, vector"
vector 450 Highway.car[13].lteNic.phy sciFailedHalfDuplex:vector ETV
attr source sciFailedHalfDuplex
attr title "Number of failed SCIs due to Half Duplex, vector"
vector 451 Highway.car[13].lteNic.phy subchannelReceived:vector ETV
attr source subchannelReceived
attr title "Initial Subchannel on which packet is received, vector"
vector 452 Highway.car[13].lteNic.phy subchannelsUsed:vector ETV
attr source subchannelsUsed
attr title "Number of Subchannels used for the received packet, vector"
vector 453 Highway.car[13].lteNic.phy txRxDistanceTB:vector ETV
attr source txRxDistanceTB
attr title "Distance between transmitter and receiver, vector"
vector 454 Highway.car[13].lteNic.phy tbReceived:vector ETV
attr source tbReceived
attr title "Number of tb received, vector"
vector 455 Highway.car[13].lteNic.phy tbDecoded:vector ETV
attr source tbDecoded
attr title "Number of tb Decoded, vector"
vector 456 Highway.car[13].lteNic.phy tbFailedDueToNoSCI:vector ETV
attr source tbFailedDueToNoSCI
attr title "Number of tb not decoded due to no SCI, vector"
vector 457 Highway.car[13].lteNic.phy tbFailedDueToProp:vector ETV
attr source tbFailedDueToProp
attr title "Number of failed TBs due to propogation, vector"
vector 458 Highway.car[13].lteNic.phy tbFailedDueToInterference:vector ETV
attr source tbFailedDueToInterference
attr title "Number of failed TBs due to interference, vector"
vector 459 Highway.car[13].lteNic.phy tbFailedButSCIReceived:vector ETV
attr source tbFailedButSCIReceived
attr title "Number of failed TBs with a decoded SCI, vector"
vector 460 Highway.car[13].lteNic.phy tbFailedHalfDuplex:vector ETV
attr source tbFailedHalfDuplex
attr title "Number of failed TBs due to Half Duplex, vector"
vector 461 Highway.car[13].lteNic.phy periodic:vector ETV
attr source periodic
attr title "Identifies traffic as periodic or aperiodic, vector"
vector 462 Highway.car[13].lteNic.phy tbFailedDueToPropIgnoreSCI:vector ETV
attr source tbFailedDueToPropIgnoreSCI
attr title "Number of failed TBs due to propogation, vector"
vector 463 Highway.car[13].lteNic.phy tbFailedDueToInterferenceIgnoreSCI:vector ETV
attr source tbFailedDueToInterferenceIgnoreSCI
attr title "Number of failed TBs due to interference, vector"
vector 464 Highway.car[13].lteNic.phy tbDecodedIgnoreSCI:vector ETV
attr source tbDecodedIgnoreSCI
attr title "Number of failed TBs due to interference, vector"
vector 465 Highway.car[14].lteNic.phy txRxDistanceSCI:vector ETV
attr source txRxDistanceSCI
attr title "Distance between transmitter and receiver, vector"
vector 466 Highway.car[14].lteNic.phy senderID:vector ETV
attr source senderID
attr title "ID of node who sent message, vector"
vector 467 Highway.car[14].lteNic.phy sciReceived:vector ETV
attr source sciReceived
attr title "Number of received sci, vector"
vector 468 Highway.car[14].lteNic.phy sciUnsensed:vector ETV
attr source sciUnsensed
attr title "Number of failed SCIs due to RSRP below threshold, vector"
vector 469 Highway.car[14].lteNic.phy sciDecoded:vector ETV
attr source sciDecoded
attr title "Number of sci successfully decoded, vector"
vector 470 Highway.car[14].lteNic.phy sciFailedDueToProp:vector ETV
attr source sciFailedDueToProp
attr title "Number of failed SCIs due to propogation, vector"
vector 471 Highway.car[14].lteNic.phy sciFailedDueToInterference:vector ETV
attr source sciFailedDueToInterference
attr title "Number of failed SCIs due to interference, vector"
vector 472 Highway.car[14].lteNic.phy sciFailedHalfDuplex:vector ETV
attr source sciFailedHalfDuplex
attr title "Number of failed SCIs due to Half Duplex, vector"
vector 473 Highway.car[14].lteNic.phy subchannelReceived:vector ETV
attr source subchannelReceived
attr title "Initial Subchannel on which packet is received, vector"
vector 474 Highway.car[14].lteNic.phy subchannelsUsed:vector ETV
attr source subchannelsUsed
attr title "Number of Subchannels used for the received packet, vector"
vector 475 Highway.car[14].lteNic.phy txRxDistanceTB:vector ETV
attr source txRxDistanceTB
attr title "Distance between transmitter and receiver, vector"
vector 476 Highway.car[14].lteNic.phy tbReceived:vector ETV
attr source tbReceived
attr title "Number of tb received, vector"
vector 477 Highway.car[14].lteNic.phy tbDecoded:vector ETV
attr source tbDecoded
attr title "Number of tb Decoded, vector"
vector 478 Highway.car[14].lteNic.phy tbFailedDueToNoSCI:vector ETV
attr source tbFailedDueToNoSCI
attr title "Number of tb not decoded due to no SCI, vector"
vector 479 Highway.car[14].lteNic.phy tbFailedDueToProp:vector ETV
attr source tbFailedDueToProp
attr title "Number of failed TBs due to propogation, vector"
vector 480 Highway.car[14].lteNic.phy tbFailedDueToInterference:vector ETV
attr source tbFailedDueToInterference
attr title "Number of failed TBs due to interference, vector"
vector 481 Highway.car[14].lteNic.phy tbFailedButSCIReceived:vector ETV
attr source tbFailedButSCIReceived
attr title "Number of failed TBs with a decoded SCI, vector"
vector 482 Highway.car[14].lteNic.phy tbFailedHalfDuplex:vector ETV
attr source tbFailedHalfDuplex
attr title "Number of failed TBs due to Half Duplex, vector"
vector 483 Highway.car[14].lteNic.phy periodic:vector ETV
attr source periodic
attr title "Identifies traffic as periodic or aperiodic, vector"
vector 484 Highway.car[14].lteNic.phy tbFailedDueToPropIgnoreSCI:vector ETV
attr source tbFailedDueToPropIgnoreSCI
attr title "Number of failed TBs due to propogation, vector"
vector 485 Highway.car[14].lteNic.phy tbFailedDueToInterferenceIgnoreSCI:vector ETV
attr source tbFailedDueToInterferenceIgnoreSCI
attr title "Number of failed TBs due to interference, vector"
vector 486 Highway.car[14].lteNic.phy tbDecodedIgnoreSCI:vector ETV
attr source tbDecodedIgnoreSCI
attr title "Number of failed TBs due to interference, vector"
vector 487 Highway.car[14].lteNic.mac receivedPacketFromLowerLayer:vector(packetBytes) ETV
attr interpolationmode none
attr source receivedPacketFromLowerLayer
vector 488 Highway.car[15].lteNic.phy txRxDistanceSCI:vector ETV
attr source txRxDistanceSCI
attr title "Distance between transmitter and receiver, vector"
vector 489 Highway.car[15].lteNic.phy senderID:vector ETV
attr source senderID
attr title "ID of node who sent message, vector"
vector 490 Highway.car[15].lteNic.phy sciReceived:vector ETV
attr source sciReceived
attr title "Number of received sci, vector"
vector 491 Highway.car[15].lteNic.phy sciUnsensed:vector ETV
attr source sciUnsensed
attr title "Number of failed SCIs due to RSRP below threshold, vector"
vector 492 Highway.car[15].lteNic.phy sciDecoded:vector ETV
attr source sciDecoded
attr title "Number of sci successfully decoded, vector"
vector 493 Highway.car[15].lteNic.phy sciFailedDueToProp:vector ETV
attr source sciFailedDueToProp
attr title "Number of failed SCIs due to propogation, vector"
vector 494 Highway.car[15].lteNic.phy sciFailedDueToInterference:vector ETV
attr source sciFailedDueToInterference
attr title "Number of failed SCIs due to interference, vector"
vector 495 Highway.car[15].lteNic.phy sciFailedHalfDuplex:vector ETV
attr source sciFailedHalfDuplex
attr title "Number of failed SCIs due to Half Duplex, vector"
vector 496 Highway.car[15].lteNic.phy subchannelReceived:vector ETV
attr source subchannelReceived
attr title "Initial Subchannel on which packet is received, vector"
vector 497 Highway.car[15].lteNic.phy subchannelsUsed:vector ETV
attr source subchannelsUsed
attr title "Number of Subchannels used for the received packet, vector"
vector 498 Highway.car[15].lteNic.phy txRxDistanceTB:vector ETV
attr source txRxDistanceTB
attr title "Distance between transmitter and receiver, vector"
vector 499 Highway.car[15].lteNic.phy tbReceived:vector ETV
attr source tbReceived
attr title "Number of tb received, vector"
vector 500 Highway.car[15].lteNic.phy tbDecoded:vector ETV
attr source tbDecoded
attr title "Number of tb Decoded, vector"
vector 501 Highway.car[15].lteNic.phy tbFailedDueToNoSCI:vector ETV
attr source tbFailedDueToNoSCI
attr title "Number of tb not decoded due to no SCI, vector"
vector 502 Highway.car[15].lteNic.phy tbFailedDueToProp:vector ETV
attr source tbFailedDueToProp
attr title "Number of failed TBs due to propogation, vector"
vector 503 Highway.car[15].lteNic.phy tbFailedDueToInterference:vector ETV
attr source tbFailedDueToInterference
attr title "Number of failed TBs due to interference, vector"
vector 504 Highway.car[15].lteNic.phy tbFailedButSCIReceived:vector ETV
attr source tbFailedButSCIReceived
attr title "Number of failed TBs with a decoded SCI, vector"
vector 505 Highway.car[15].lteNic.phy tbFailedHalfDuplex:vector ETV
attr source tbFailedHalfDuplex
attr title "Number of failed TBs due to Half Duplex, vector"
vector 506 Highway.car[15].lteNic.phy periodic:vector ETV
attr source periodic
attr title "Identifies traffic as periodic or aperiodic, vector"
[...]
1370	13800452 153 118309 341887 501.601 504.536 7 1 1 7 7
1371	13800605 154 115535 343124 501.568 504.556 7 1 1 7 7
1372	13800759 154 115535 343124 501.568 504.556 7 1 1 7 7
1373	13800913 1362 98818 366023 501.349 504.849 36 0.01010101010101 0.026936026936027 0.68460111317254 0.013742360946178
1374	13802275 1361 98818 366023 501.349 504.849 36 0.01010101010101 0.026936026936027 0.68123410980554 0.013594983694423
1375	13803636 1362 98826 366031 501.349 504.849 36 0.01010101010101 0.026936026936027 0.68460111317254 0.013742360946178
1376	13804998 152 115596 342128 501.569 504.54 7 1 1 7 7
1377	13805150 152 115596 342128 501.569 504.54 7 1 1 7 7
1378	13805302 1360 99233 366437 501.356 504.856 36 0.013468013468013 0.026936026936027 0.69147254861541 0.013908981333469
1379	13806662 1360 99233 366437 501.356 504.856 36 0.013468013468013 0.026936026936027 0.69147254861541 0.013908981333469
1380	13808022 1360 99271 366475 501.356 504.856 36 0.013468013468013 0.026936026936027 0.69147254861541 0.013908981333469
1381	13809382 1360 99871 367075 501.362 504.862 36 0.0067340067340067 0.026936026936027 0.67769532055246 0.013622250114971
1382	13810742 1360 99871 367075 501.362 504.862 36 0.0067340067340067 0.026936026936027 0.67769532055246 0.013622250114971
1383	13812102 1360 99886 367090 501.362 504.862 36 0.0067340067340067 0.026936026936027 0.67769532055246 0.013622250114971
1384	13813462 154 109632 338977 501.492 504.497 7 5 5 35 175
1385	13813616 154 109633 338978 501.492 504.497 7 1 1 7 7
1386	13813770 154 109633 338978 501.492 504.497 7 0 1 4 4
1387	13813924 154 109633 338978 501.492 504.497 7 1 1 7 7
1388	13814078 154 109634 338979 501.492 504.497 7 1 1 7 7
1389	13814232 3397 95249 370943 501.309 504.923 132 0.403 1.531 73.857 46.037157
1390	13817629 3349 95253 370947 501.309 504.923 130 0.412 2.509 75.515 55.099537
1391	13820978 2700 95261 366709 501.309 504.858 105 0.403 2.06 58.158 36.946178
1392	13823678 2106 95265 366713 501.309 504.858 82 0.414 2.021 43.946 26.595242
1393	13825784 1442 95269 366717 501.309 504.858 56 0.403 4.001 33.352 34.310168
1394	13827226 1616 95275 366723 501.309 504.858 63 0.403 2.056 35.04 23.121756
1395	13828842 2282 96615 361144 501.323 504.791 89 0.403 1.435 47.896 27.899046
1396	13831124 3339 95297 366745 501.309 504.858 130 0.403 1.98 72.474 46.769944
1397	13834463 3162 95301 366749 501.309 504.858 123 0.403 3.942 74.527 70.448013
1398	13837625 3864 95303 365697 501.309 504.845 150 0.412 2.089 84.931 56.783919
1399	13841489 147 115597 344160 501.57 504.57 7 1 1 7 7
1400	13841636 147 115628 344191 501.57 504.57 7 0 0 0 0
1401	13841783 147 115628 344191 501.57 504.57 7 1 1 7 7
1402	13841930 150 115631 344194 501.57 504.57 7 6 15 73 837
1403	13842080 455 115631 348193 501.57 504.626 21 0 5 35 175
1404	13842535 147 115631 344194 501.57 504.57 7 1 1 7 7
1405	13842682 301 115631 348184 501.57 504.626 14 1 3 28 70
1406	13842983 189 115633 344196 501.57 504.57 7 501.632 504.626 3521.92 1771995.481228
1407	13843172 147 115633 344196 501.57 504.57 7 0 2 7 11
1408	13843319 147 115633 344196 501.57 504.57 7 1 1 7 7
1409	13843466 147 115633 344196 501.57 504.57 7 0 0 0 0
1410	13843613 154 116343 344667 501.578 504.578 7 1 1 7 7
1411	13843767 154 116374 344698 501.578 504.578 7 0 0 0 0
1412	13843921 154 116374 344698 501.578 504.578 7 1 1 7 7
1413	13844075 158 116377 344701 501.578 504.578 7 5 15 79 1009
1414	13844233 458 116377 350916 501.578 504.662 21 0 5 35 175
1415	13844691 154 116377 344701 501.578 504.578 7 1 1 7 7
1416	13844845 306 116377 350890 501.578 504.662 14 1 3 28 70
1417	13845151 194 116379 344703 501.578 504.578 7 501.662 504.662 3521.877 1771952.434221
1418	13845345 154 116379 344703 501.578 504.578 7 0 2 7 9
1419	13845499 154 116379 344703 501.578 504.578 7 1 1 7 7
1420	13845653 154 116379 344703 501.578 504.578 7 0 0 0 0
1421	13845807 154 115000 345295 501.563 504.587 7 5 5 35 175
1422	13845961 154 115001 345296 501.563 504.587 7 1 1 7 7
1423	13846115 154 115001 345296 501.563 504.587 7 0 1 3 3
1424	13846269 154 115001 345296 501.563 504.587 7 1 1 7 7
1425	13846423 154 115002 345297 501.563 504.587 7 1 1 7 7
1426	13846577 1395 94449 369281 501.298 504.898 37 0.0068027210884354 0.03030303030303 0.70810142238714 0.014497734874486
1427	13847972 1395 94449 369281 501.298 504.898 37 0.0068027210884354 0.03030303030303 0.70473441902013 0.014327684199385
1428	13849367 1395 94481 369313 501.298 504.898 37 0.0068027210884354 0.03030303030303 0.70810142238714 0.014497734874486
1429	13850762 2931 95735 370945 501.313 504.923 114 0.412 1.99 63.315 40.337027
1430	13853693 3731 95739 370949 501.313 504.923 145 0.412 1.492 75.6 41.641756
1431	13857424 3912 95257 370951 501.309 504.923 152 0.412 1.565 82.902 50.135094
1432	13861336 3224 95743 370953 501.313 504.923 125 0.412 1.529 67.93 40.644418
1433	13864560 2734 95747 370957 501.313 504.923 106 0.412 2.594 60.371 42.932921
1434	13867294 3910 95267 370961 501.309 504.923 152 0.412 1.512 86.468 56.182662
1435	13871204 3070 95755 370965 501.313 504.923 119 0.412 3.464 70.428 60.85701
1436	13874274 3964 95757 370967 501.313 504.923 154 0.414 3.058 84.873 57.167663
1437	13878238 2937 95761 365671 501.313 504.845 114 0.414 1.486 61.944 36.733744
1438	13881175 3835 95279 366727 501.309 504.858 149 0.403 1.995 87.31 62.549968
1439	13885010 2578 95767 365677 501.313 504.845 100 0.412 2.021 55.062 34.717456
1440	13887588 3960 95769 365679 501.313 504.845 154 0.412 1.962 80.509 45.512827
1441	13891548 3783 96990 364894 501.325 504.836 147 0.412 1.548 78.448 45.496668
1442	13895331 4064 95771 365681 501.313 504.845 158 0.412 1.081 83.473 46.644407
1443	13899395 3629 95289 366737 501.309 504.858 141 0.403 3.988 82.64 67.998324
1444	13903024 3654 95777 365687 501.313 504.845 142 0.412 2.041 78.486 50.38196
1445	13906678 3914 95779 365689 501.313 504.845 152 0.412 1.518 80.075 45.028019
1446	13910592 3066 95789 365699 501.313 504.845 119 0.412 1.526 66.425 41.821349
1447	13913658 1392 95551 370143 501.312 504.912 37 0.01010101010101 0.03030303030303 0.70823885109599 0.01448343295876
1448	13915050 1393 95551 370143 501.312 504.912 37 0.01010101010101 0.03030303030303 0.70150484436199 0.014256698725291
1449	13916443 1392 95577 370169 501.312 504.912 37 0.01010101010101 0.03030303030303 0.70823885109599 0.01448343295876
1450	13917835 154 120484 348193 501.632 504.626 7 5 5 35 175
1451	13917989 154 120485 348194 501.632 504.626 7 1 1 7 7
1452	13918143 154 120485 348194 501.632 504.626 7 0 2 7 11
1453	13918297 154 120485 348194 501.632 504.626 7 1 1 7 7
1454	13918451 154 120486 348195 501.632 504.626 7 1 1 7 7
1455	13918605 1435 95299 366747 501.309 504.858 56 0.403 1.543 30.438 18.319896
1456	13920040 152 121329 349167 501.642 504.634 7 1 1 7 7
1457	13920192 152 121329 349167 501.642 504.634 7 1 1 7 7
1458	13920344 154 113635 343565 501.545 504.563 7 5 5 35 175
1459	13920498 154 113636 343566 501.545 504.563 7 1 1 7 7
1460	13920652 154 113636 343566 501.545 504.563 7 0 2 6 10
1461	13920806 154 113636 343566 501.545 504.563 7 1 1 7 7
1462	13920960 154 113637 343567 501.545 504.563 7 1 1 7 7
1463	13921114 3833 95775 365685 501.313 504.845 149 0.412 1.081 75.856 39.650946
1464	13924947 154 121881 350203 501.652 504.652 7 1 1 7 7
1465	13925101 154 121912 350234 501.652 504.652 7 0 0 0 0
1466	13925255 154 121912 350234 501.652 504.652 7 1 1 7 7
1467	13925409 160 121918 350240 501.652 504.652 7 7 15 82 1012
1468	13925569 460 121918 357389 501.652 504.74 21 0 5 35 175
1469	13926029 154 121918 350240 501.652 504.652 7 1 1 7 7
1470	13926183 307 121918 357375 501.652 504.74 14 1 3 28 70
1471	13926490 195 121922 350244 501.652 504.652 7 501.745 504.74 3522.456 1772534.952046
1472	13926685 154 121922 350244 501.652 504.652 7 0 2 6 10
1473	13926839 154 121922 350244 501.652 504.652 7 1 1 7 7
1474	13926993 154 121922 350244 501.652 504.652 7 0 0 0 0
1475	13927147 154 122752 350835 501.662 504.662 7 1 1 7 7
1476	13927301 154 122783 350866 501.662 504.662 7 0 0 0 0
1477	13927455 154 122783 350866 501.662 504.662 7 1 1 7 7
1478	13927609 158 122792 350875 501.662 504.662 7 6 13 67 677
1479	13927767 460 122792 353831 501.662 504.694 21 0 5 35 175
1480	13928227 154 122792 350875 501.662 504.662 7 1 1 7 7
1481	13928381 307 122792 353814 501.662 504.694 14 1 3 28 70
1482	13928688 195 122798 350881 501.662 504.662 7 501.708 504.694 3522.484 1772563.233174
1483	13928883 154 122798 350881 501.662 504.662 7 0 2 8 12
1484	13929037 154 122798 350881 501.662 504.662 7 1 1 7 7
1485	13929191 154 122798 350881 501.662 504.662 7 0 0 0 0
1486	13929345 152 122833 350916 501.662 504.662 7 5 5 35 175
1487	13929497 152 122834 350917 501.662 504.662 7 1 1 7 7
1488	13929649 152 122834 350917 501.662 504.662 7 0 2 7 9
1489	13929801 152 122834 350917 501.662 504.662 7 1 1 7 7
1490	13929953 152 122835 350918 501.662 504.662 7 1 1 7 7
1491	13930105 154 117513 346142 501.592 504.597 7 1 1 7 7
1492	13930259 154 117513 346142 501.592 504.597 7 1 1 7 7
1493	13930413 154 123978 352300 501.674 504.674 7 1 1 7 7
1494	13930567 154 124009 352331 501.674 504.674 7 0 0 0 0
1495	13930721 154 124009 352331 501.674 504.674 7 1 1 7 7
1496	13930875 159 124012 352334 501.674 504.674 7 6 15 79 957
1497	13931034 458 124012 355416 501.674 504.712 21 0 5 35 175
1498	13931492 154 124012 352334 501.674 504.674 7 1 1 7 7
1499	13931646 306 124012 355404 501.674 504.712 14 1 3 28 70
1500	13931952 194 124014 352336 501.674 504.674 7 501.7 504.712 3522.482 1772561.312038
1501	13932146 154 124014 352336 501.674 504.674 7 0 2 8 12
1502	13932300 154 124014 352336 501.674 504.674 7 1 1 7 7
1503	13932454 154 124014 352336 501.674 504.674 7 0 0 0 0
1504	13932608 154 122896 353406 501.663 504.687 7 1 1 7 7
1505	13932762 154 122896 353406 501.663 504.687 7 1 1 7 7
1506	13932916 152 125643 355416 501.7 504.712 7 5 5 35 175
1507	13933068 152 125644 355417 501.7 504.712 7 1 1 7 7
1508	13933220 152 125644 355417 501.7 504.712 7 0 2 8 12
1509	13933372 152 125644 355417 501.7 504.712 7 1 1 7 7
1510	13933524 152 125645 355418 501.7 504.712 7 1 1 7 7
1511	13933676 154 128339 356524 501.732 504.726 7 1 1 7 7
1512	13933830 154 128339 356524 501.732 504.726 7 1 1 7 7
1513	13933984 1397 96032 370386 501.316 504.916 37 0.01010101010101 0.03030303030303 0.71153714010857 0.01455767401915
1514	13935381 1397 96032 370386 501.316 504.916 37 0.01010101010101 0.03030303030303 0.69803476946334 0.014034557489024
1515	13936778 1397 96061 370415 501.316 504.916 37 0.01010101010101 0.03030303030303 0.71153714010857 0.01455767401915
1516	13938175 154 127223 356021 501.719 504.719 7 1 1 7 7
1517	13938329 154 127254 356052 501.719 504.719 7 0 0 0 0
1518	13938483 154 127254 356052 501.719 504.719 7 1 1 7 7
1519	13938637 159 127257 356055 501.719 504.719 7 6 14 78 922
1520	13938796 460 127257 362701 501.719 504.814 21 0 5 35 175
1521	13939256 154 127257 356055 501.719 504.719 7 1 1 7 7
1522	13939410 307 127257 362700 501.719 504.814 14 1 3 28 70
1523	13939717 195 127259 356057 501.719 504.719 7 501.723 504.814 3522.859 1772940.973929
1524	13939912 154 127259 356057 501.719 504.719 7 0 2 4 6
1525	13940066 154 127259 356057 501.719 504.719 7 1 1 7 7
1526	13940220 154 127259 356057 501.719 504.719 7 0 0 0 0
1527	13940374 154 121510 350979 501.645 504.663 7 1 1 7 7
1528	13940528 154 121510 350979 501.645 504.663 7 1 1 7 7
1529	13940682 153 129141 357389 501.745 504.74 7 5 5 35 175
1530	13940835 153 129142 357390 501.745 504.74 7 1 1 7 7
1531	13940988 153 129142 357390 501.745 504.74 7 0 2 6 10
1532	13941141 153 129142 357390 501.745 504.74 7 1 1 7 7
1533	13941294 153 129143 357391 501.745 504.74 7 1 1 7 7
1534	13941447 153 126372 353831 501.708 504.694 7 5 5 35 175
1535	13941600 153 126373 353832 501.708 504.694 7 1 1 7 7
1536	13941753 153 126373 353832 501.708 504.694 7 0 2 8 12
1537	13941906 153 126373 353832 501.708 504.694 7 1 1 7 7
1538	13942059 153 126374 353833 501.708 504.694 7 1 1 7 7
1539	13942212 1360 99251 366455 501.356 504.856 36 0.010204081632653 0.026936026936027 0.69147254861541 0.013910376584739
1540	13943572 1360 99251 366455 501.356 504.856 36 0.010204081632653 0.026936026936027 0.69147254861541 0.013910376584739
1541	13944932 1360 99272 366476 501.356 504.856 36 0.010204081632653 0.026936026936027 0.69147254861541 0.013910376584739
1542	13946292 152 130449 359008 501.762 504.762 7 1 1 7 7
1543	13946444 152 130449 359008 501.762 504.762 7 1 1 7 7
1544	13946596 154 130952 359519 501.771 504.771 7 1 1 7 7
1545	13946750 154 130983 359550 501.771 504.771 7 0 0 0 0
1546	13946904 154 130983 359550 501.771 504.771 7 1 1 7 7
1547	13947058 158 130989 359556 501.771 504.771 7 5 15 69 785
1548	13947216 500 98011 364299 501.339 504.832 23 0 5 40 200
1549	13947716 154 130989 359556 501.771 504.771 7 1 1 7 7
1550	13947870 327 98009 364297 501.339 504.832 15 1 3 31 79
1551	13948197 194 130993 359560 501.771 504.771 7 501.867 504.832 3523.145 1773228.395543
1552	13948391 154 130993 359560 501.771 504.771 7 0 2 10 18
1553	13948545 154 130993 359560 501.771 504.771 7 1 1 7 7
1554	13948699 154 130993 359560 501.771 504.771 7 0 0 0 0
1555	13948853 1357 100688 367893 501.375 504.875 36 0.0067340067340067 0.027210884353741 0.68841475984333 0.013921596435266
1556	13950210 1357 100688 367893 501.375 504.875 36 0.0067340067340067 0.027210884353741 0.68841475984333 0.013921596435266
1557	13951567 1357 100695 367900 501.375 504.875 36 0.0067340067340067 0.027210884353741 0.68841475984333 0.013921596435266
1558	13952924 153 127534 362701 501.723 504.814 7 5 5 35 175
1559	13953077 153 127535 362702 501.723 504.814 7 1 1 7 7
1560	13953230 153 127535 362702 501.723 504.814 7 0 2 4 6
1561	13953383 153 127535 362702 501.723 504.814 7 1 1 7 7
1562	13953536 153 127536 362703 501.723 504.814 7 1 1 7 7
1563	13953689 173 94512 362576 501.298 504.812 8 1 1 8 8
1564	13953862 173 94512 362576 501.298 504.812 8 1 1 8 8
1565	13954035 1359 97214 363702 501.327 504.827 36 0.01010101010101 0.026936026936027 0.68130282415997 0.013780556835008
1566	13955394 1358 97214 363702 501.327 504.827 36 0.01010101010101 0.026936026936027 0.67793582079296 0.013633179583254
1567	13956752 1359 97227 363715 501.327 504.827 36 0.01010101010101 0.026936026936027 0.68130282415997 0.013780556835008
1568	13958111 173 96338 365272 501.32 504.84 8 1 1 8 8
1569	13958284 173 96338 365272 501.32 504.84 8 1 1 8 8
1570	13958457 175 97568 364302 501.333 504.833 8 1 1 8 8
1571	13958632 175 97599 364333 501.333 504.833 8 0 0 0 0
1572	13958807 175 97599 364333 501.333 504.833 8 1 1 8 8
1573	13958982 178 97602 364336 501.333 504.833 8 7 13 73 705
1574	13959160 527 97602 364737 501.333 504.835 24 0 5 40 200
1575	13959687 175 97602 364336 501.333 504.833 8 1 1 8 8
1576	13959862 351 97602 364716 501.333 504.835 16 1 3 32 80
1577	13960213 223 97604 364338 501.333 504.833 8 501.409 504.835 4025.015 2025103.344097
1578	13960436 175 97604 364338 501.333 504.833 8 0 2 9 17
1579	13960611 175 97604 364338 501.333 504.833 8 1 1 8 8
1580	13960786 175 97604 364338 501.333 504.833 8 0 0 0 0
1581	13960961 176 103531 364737 501.409 504.835 8 5 5 40 200
1582	13961137 176 103532 364738 501.409 504.835 8 1 1 8 8
1583	13961313 176 103532 364738 501.409 504.835 8 0 2 9 17
1584	13961489 176 103532 364738 501.409 504.835 8 1 1 8 8
1585	13961665 176 103533 364739 501.409 504.835 8 1 1 8 8
1586	13961841 173 98011 364299 501.339 504.832 8 5 5 40 200
1587	13962014 173 98012 364300 501.339 504.832 8 1 1 8 8
1588	13962187 173 98012 364300 501.339 504.832 8 0 2 12 22
1589	13962360 173 98012 364300 501.339 504.832 8 1 1 8 8
1590	13962533 173 98013 364301 501.339 504.832 8 1 1 8 8
1591	13962706 174 98671 361468 501.346 504.794 8 1 1 8 8
1592	13962880 174 98671 361468 501.346 504.794 8 1 1 8 8
1593	13963054 1359 99861 367065 501.362 504.862 36 0.01010101010101 0.026936026936027 0.68133718133718 0.013600332157625
1594	13964413 1359 99861 367065 501.362 504.862 36 0.01010101010101 0.026936026936027 0.67797017797018 0.013430281482524
1595	13965772 1359 99885 367089 501.362 504.862 36 0.01010101010101 0.026936026936027 0.68133718133718 0.013600332157625
1596	13967131 176 100097 367301 501.366 504.866 8 1 1 8 8
1597	13967307 176 100128 367332 501.366 504.866 8 0 0 0 0
1598	13967483 176 100128 367332 501.366 504.866 8 1 1 8 8
1599	13967659 181 100131 367335 501.366 504.866 8 8 14 88 1000
1600	13967840 484 100131 367335 501.366 504.866 22 0 5 35 175
1601	13968324 176 100131 367335 501.366 504.866 8 1 1 8 8
1602	13968500 330 100131 367335 501.366 504.866 15 1 3 29 71
1603	13968830 224 100133 367337 501.366 504.866 8 501.386 504.951 4025.15 2025239.964638
1604	13969054 176 100133 367337 501.366 504.866 8 0 2 8 12
1605	13969230 176 100133 367337 501.366 504.866 8 1 1 8 8
1606	13969406 176 100133 367337 501.366 504.866 8 0 0 0 0
1607	13969582 176 100594 367799 501.374 504.874 8 1 1 8 8
1608	13969758 176 100625 367830 501.374 504.874 8 0 0 0 0
1609	13969934 176 100625 367830 501.374 504.874 8 1 1 8 8
1610	13970110 181 100628 367833 501.374 504.874 8 5 15 89 1081
1611	13970291 482 100628 367833 501.374 504.874 22 0 5 35 175
1612	13970773 176 100628 367833 501.374 504.874 8 1 1 8 8
1613	13970949 329 100628 367833 501.374 504.874 15 1 3 29 71
1614	13971278 223 100630 367835 501.374 504.874 8 501.451 504.972 4025.422 2025513.361986
1615	13971501 176 100630 367835 501.374 504.874 8 0 2 13 25
1616	13971677 176 100630 367835 501.374 504.874 8 1 1 8 8
1617	13971853 176 100630 367835 501.374 504.874 8 0 0 0 0
1618	13972029 1362 101519 368485 501.385 504.885 36 0.0067340067340067 0.03030303030303 0.68827733113447 0.014290301616921
1619	13973391 1362 101519 368485 501.385 504.885 36 0.0067340067340067 0.03030303030303 0.68827733113447 0.014290301616921
1620	13974753 1362 101549 368515 501.385 504.885 36 0.0067340067340067 0.03030303030303 0.68827733113447 0.014290301616921
1621	13976115 174 99232 370320 501.355 504.914 8 1 1 8 8
1622	13976289 174 99232 370320 501.355 504.914 8 1 1 8 8
1623	13976463 1393 94282 369107 501.295 504.895 37 0.01010101010101 0.027210884353741 0.69837834123548 0.013940258806315
1624	13977856 1393 94282 369107 501.295 504.895 37 0.01010101010101 0.027210884353741 0.69837834123548 0.013940258806315
1625	13979249 1393 94296 369121 501.295 504.895 37 0.01010101010101 0.027210884353741 0.69837834123548 0.013940258806315
1626	13980642 153 106380 329706 501.451 504.374 7 5 5 35 175
1627	13980795 153 106381 329707 501.451 504.374 7 1 1 7 7
1628	13980948 153 106381 329707 501.451 504.374 7 1 2 13 25
1629	13981101 153 106381 329707 501.451 504.374 7 1 1 7 7
1630	13981254 153 106382 329708 501.451 504.374 7 1 1 7 7
1631	13981407 154 101644 333591 501.386 504.429 7 5 5 35 175
1632	13981561 154 101645 333592 501.386 504.429 7 1 1 7 7
1633	13981715 154 101645 333592 501.386 504.429 7 0 2 7 11
1634	13981869 154 101645 333592 501.386 504.429 7 1 1 7 7
1635	13982023 154 101646 333593 501.386 504.429 7 1 1 7 7
1636	13982177 154 111162 335979 501.509 504.456 7 1 1 7 7
1637	13982331 154 111162 335979 501.509 504.456 7 1 1 7 7
1638	13982485 152 105640 330311 501.439 504.38 7 1 1 7 7
1639	13982637 152 105640 330311 501.439 504.38 7 1 1 7 7
1640	13982789 1326 98863 366068 501.35 504.85 36 0.013468013468013 0.026936026936027 0.69154126296983 0.013754918207608
1641	13984115 1326 98863 366068 501.35 504.85 36 0.013468013468013 0.026936026936027 0.69154126296983 0.013754918207608
1642	13985441 1326 98891 366096 501.35 504.85 36 0.013468013468013 0.026936026936027 0.69154126296983 0.013754918207608
1643	13986767 1344 100407 367612 501.371 504.871 36 0 0.03030303030303 0.67786710643854 0.013950607510109
1644	13988111 1344 100407 367612 501.371 504.871 36 0 0.03030303030303 0.67786710643854 0.013950607510109
1645	13989455 1344 100438 367643 501.371 504.871 36 0 0.03030303030303 0.67786710643854 0.013950607510109
1646	13990799 153 114240 337560 501.551 504.474 7 1 1 7 7
1647	13990952 153 114240 337560 501.551 504.474 7 1 1 7 7
1648	13991105 154 109267 341212 501.486 504.529 7 1 1 7 7
1649	13991259 154 109267 341212 501.486 504.529 7 1 1 7 7

