file 1100626 1658715564                                         
version 2
run Hackathon114-0-20220725-00:03:44-2999
attr configname Hackathon114
attr datetime 20220725-00:03:44
attr experiment Hackathon114
attr inifile omnetpp.ini
attr iterationvars ""
attr iterationvarsf ""
attr measurement ""
attr network lte.simulations.Mode4.Highway
attr processid 2999
attr repetition 0
attr replication #0
attr resultdir results
attr runnumber 0
attr seedset 0
param *.car[*].d2dCapable true
param *.car[*].mode4D2D true
param **.amcMode "\"D2D\""
param *.car[*].applType "\"Mode4App\""
param *.car[*].appl.packetSize 190
param *.car[*].nicType "\"LteNicVUeMode4\""
param *.car[*].lteNic.d2dCapable true
param *.car[*].lteNic.pdcpRrc.ipBased false
param *.car[*].lteNic.rlc.ipBased false
param *.car[*].lteNic.mac.subchannelSize 16
param *.car[*].lteNic.mac.numSubchannels 3
param *.car[*].lteNic.mac.probResourceKeep 0.4
param *.car[*].lteNic.mac.useCBR false
param *.car[*].lteNic.mac.crLimit false
param *.car[*].lteNic.mac.rriLookup false
param *.car[*].lteNic.mac.dccMechanism false
param *.car[*].lteNic.mac.packetDropping false
param *.car[*].lteNic.mac.reselectAfter 1
param *.car[*].lteNic.mac.adjacencyPSCCHPSSCH true
param *.car[*].lteNic.rlc.um.scenario3gpp false
param *.car[*].lteNic.phy.subchannelSize 16
param *.car[*].lteNic.phy.numSubchannels 3
param *.car[*].lteNic.phy.selectionWindowStartingSubframe 1
param *.car[*].lteNic.phy.adjacencyPSCCHPSSCH true
param *.car[*].lteNic.phy.pStep 100
param *.car[*].lteNic.phy.thresholdRSSI 10
param *.car[*].ueTxPower 23
param *.car[*].lteNic.phy.d2dTxPower 23
param *.**.nic.lteNic.phy.usePropagationDelay true
param *.visualizer.mediumVisualizer.displaySignals true
param *.visualizer.physicalLinkVisualizer.displayLinks true
param *.visualizer.physicalLinkVisualizer.packetFilter "\"Mode4Data*\""
param **.usePreconfiguredTxParams true
param **.lteNic.mac.txConfig "xmldoc(\"sidelink_configuration.xml\")"
param **.coreDebug false
param **.routingRecorder.enabled false
param *.playgroundSizeX 2000000m
param *.playgroundSizeY 2000000m
param *.playgroundSizeZ 50m
param **.channelControl.pMax 10W
param **.channelControl.alpha 1.0
param **.channelControl.carrierFrequency 6000e+6Hz
param **.lteNic.phy.channelModel "xmldoc(\"config_channel.xml\")"
param **.feedbackComputation "xmldoc(\"config_channel.xml\")"
param **.rbAllocationType "\"localized\""
param **.feedbackType "\"ALLBANDS\""
param **.feedbackGeneratorType "\"IDEAL\""
param **.maxHarqRtx 0
param **.deployer.ruRange 50
param **.deployer.ruTxPower "\"50,50,50;\""
param **.deployer.antennaCws "\"2;\""
param **.deployer.numRbDl 51
param **.deployer.numRbUl 48
param **.numBands 48
param **.fbDelay 1
param *.veinsManager.moduleType "\"lte.corenetwork.nodes.cars.CarIPv6\""
param *.veinsManager.moduleName "\"car\""
param *.veinsManager.moduleDisplayString "\"\""
param *.veinsManager.launchConfig "xmldoc(\"highway/006vpm/highway.launchd.xml\")"
param *.veinsManager.updateInterval 0.1s
param *.veinsManager.firstStepAt 500s
param *.car[*].mobilityType "\"VeinsInetMobility\""
param **.deployer.positionUpdateInterval 0.01s

vector 0 Highway.car[0].lteNic.phy servingCell:vector ETV
attr source servingCell
attr title "ID of the serving eNodeB for the UE, vector"
attr unit ""
vector 1 Highway.car[0].lteNic.mac macNodeID:vector ETV
attr source macNodeID
attr title "Reports Mac NodeID to allow for trans to nodeID, vector"
vector 2 Highway.car[1].lteNic.phy servingCell:vector ETV
attr source servingCell
attr title "ID of the serving eNodeB for the UE, vector"
attr unit ""
vector 3 Highway.car[1].lteNic.mac macNodeID:vector ETV
attr source macNodeID
attr title "Reports Mac NodeID to allow for trans to nodeID, vector"
vector 4 Highway.car[2].lteNic.phy servingCell:vector ETV
attr source servingCell
attr title "ID of the serving eNodeB for the UE, vector"
attr unit ""
vector 5 Highway.car[2].lteNic.mac macNodeID:vector ETV
attr source macNodeID
attr title "Reports Mac NodeID to allow for trans to nodeID, vector"
vector 6 Highway.car[3].lteNic.phy servingCell:vector ETV
attr source servingCell
attr title "ID of the serving eNodeB for the UE, vector"
attr unit ""
vector 7 Highway.car[3].lteNic.mac macNodeID:vector ETV
attr source macNodeID
attr title "Reports Mac NodeID to allow for trans to nodeID, vector"
vector 8 Highway.car[4].lteNic.phy servingCell:vector ETV
attr source servingCell
attr title "ID of the serving eNodeB for the UE, vector"
attr unit ""
vector 9 Highway.car[4].lteNic.mac macNodeID:vector ETV
attr source macNodeID
attr title "Reports Mac NodeID to allow for trans to nodeID, vector"
vector 10 Highway.car[5].lteNic.phy servingCell:vector ETV
attr source servingCell
attr title "ID of the serving eNodeB for the UE, vector"
attr unit ""
vector 11 Highway.car[5].lteNic.mac macNodeID:vector ETV
attr source macNodeID
attr title "Reports Mac NodeID to allow for trans to nodeID, vector"
vector 12 Highway.car[6].lteNic.phy servingCell:vector ETV
attr source servingCell
attr title "ID of the serving eNodeB for the UE, vector"
attr unit ""
vector 13 Highway.car[6].lteNic.mac macNodeID:vector ETV
attr source macNodeID
attr title "Reports Mac NodeID to allow for trans to nodeID, vector"
vector 14 Highway.car[7].lteNic.phy servingCell:vector ETV
attr source servingCell
attr title "ID of the serving eNodeB for the UE, vector"
attr unit ""
vector 15 Highway.car[7].lteNic.mac macNodeID:vector ETV
attr source macNodeID
attr title "Reports Mac NodeID to allow for trans to nodeID, vector"
vector 16 Highway.car[8].lteNic.phy servingCell:vector ETV
attr source servingCell
attr title "ID of the serving eNodeB for the UE, vector"
attr unit ""
vector 17 Highway.car[8].lteNic.mac macNodeID:vector ETV
attr source macNodeID
attr title "Reports Mac NodeID to allow for trans to nodeID, vector"
vector 18 Highway.car[9].lteNic.phy servingCell:vector ETV
attr source servingCell
attr title "ID of the serving eNodeB for the UE, vector"
attr unit ""
vector 19 Highway.car[9].lteNic.mac macNodeID:vector ETV
attr source macNodeID
attr title "Reports Mac NodeID to allow for trans to nodeID, vector"
vector 20 Highway.car[10].lteNic.phy servingCell:vector ETV
attr source servingCell
attr title "ID of the serving eNodeB for the UE, vector"
attr unit ""
vector 21 Highway.car[10].lteNic.mac macNodeID:vector ETV
attr source macNodeID
attr title "Reports Mac NodeID to allow for trans to nodeID, vector"
vector 22 Highway.car[11].lteNic.phy servingCell:vector ETV
attr source servingCell
attr title "ID of the serving eNodeB for the UE, vector"
attr unit ""
vector 23 Highway.car[11].lteNic.mac macNodeID:vector ETV
attr source macNodeID
attr title "Reports Mac NodeID to allow for trans to nodeID, vector"
vector 24 Highway.car[12].lteNic.phy servingCell:vector ETV
attr source servingCell
attr title "ID of the serving eNodeB for the UE, vector"
attr unit ""
vector 25 Highway.car[12].lteNic.mac macNodeID:vector ETV
attr source macNodeID
attr title "Reports Mac NodeID to allow for trans to nodeID, vector"
vector 26 Highway.car[13].lteNic.phy servingCell:vector ETV
attr source servingCell
attr title "ID of the serving eNodeB for the UE, vector"
attr unit ""
vector 27 Highway.car[13].lteNic.mac macNodeID:vector ETV
attr source macNodeID
attr title "Reports Mac NodeID to allow for trans to nodeID, vector"
vector 28 Highway.car[14].lteNic.phy servingCell:vector ETV
attr source servingCell
attr title "ID of the serving eNodeB for the UE, vector"
attr unit ""
vector 29 Highway.car[14].lteNic.mac macNodeID:vector ETV
attr source macNodeID
attr title "Reports Mac NodeID to allow for trans to nodeID, vector"
vector 30 Highway.car[15].lteNic.phy servingCell:vector ETV
attr source servingCell
attr title "ID of the serving eNodeB for the UE, vector"
attr unit ""
vector 31 Highway.car[15].lteNic.mac macNodeID:vector ETV
attr source macNodeID
attr title "Reports Mac NodeID to allow for trans to nodeID, vector"
vector 32 Highway.car[16].lteNic.phy servingCell:vector ETV
attr source servingCell
attr title "ID of the serving eNodeB for the UE, vector"
attr unit ""
vector 33 Highway.car[16].lteNic.mac macNodeID:vector ETV
attr source macNodeID
attr title "Reports Mac NodeID to allow for trans to nodeID, vector"
vector 34 Highway.car[17].lteNic.phy servingCell:vector ETV
attr source servingCell
attr title "ID of the serving eNodeB for the UE, vector"
attr unit ""
vector 35 Highway.car[17].lteNic.mac macNodeID:vector ETV
attr source macNodeID
attr title "Reports Mac NodeID to allow for trans to nodeID, vector"
vector 36 Highway.car[18].lteNic.phy servingCell:vector ETV
attr source servingCell
attr title "ID of the serving eNodeB for the UE, vector"
attr unit ""
vector 37 Highway.car[18].lteNic.mac macNodeID:vector ETV
attr source macNodeID
attr title "Reports Mac NodeID to allow for trans to nodeID, vector"
vector 38 Highway.car[19].lteNic.phy servingCell:vector ETV
attr source servingCell
attr title "ID of the serving eNodeB for the UE, vector"
attr unit ""
vector 39 Highway.car[19].lteNic.mac macNodeID:vector ETV
attr source macNodeID
attr title "Reports Mac NodeID to allow for trans to nodeID, vector"
vector 40 Highway.car[20].lteNic.phy servingCell:vector ETV
attr source servingCell
attr title "ID of the serving eNodeB for the UE, vector"
attr unit ""
vector 41 Highway.car[20].lteNic.mac macNodeID:vector ETV
attr source macNodeID
attr title "Reports Mac NodeID to allow for trans to nodeID, vector"
vector 42 Highway.car[21].lteNic.phy servingCell:vector ETV
attr source servingCell
attr title "ID of the serving eNodeB for the UE, vector"
attr unit ""
vector 43 Highway.car[21].lteNic.mac macNodeID:vector ETV
attr source macNodeID
attr title "Reports Mac NodeID to allow for trans to nodeID, vector"
vector 44 Highway.car[22].lteNic.phy servingCell:vector ETV
attr source servingCell
attr title "ID of the serving eNodeB for the UE, vector"
attr unit ""
vector 45 Highway.car[22].lteNic.mac macNodeID:vector ETV
attr source macNodeID
attr title "Reports Mac NodeID to allow for trans to nodeID, vector"
vector 46 Highway.car[23].lteNic.phy servingCell:vector ETV
attr source servingCell
attr title "ID of the serving eNodeB for the UE, vector"
attr unit ""
vector 47 Highway.car[23].lteNic.mac macNodeID:vector ETV
attr source macNodeID
attr title "Reports Mac NodeID to allow for trans to nodeID, vector"
vector 48 Highway.car[24].lteNic.phy servingCell:vector ETV
attr source servingCell
attr title "ID of the serving eNodeB for the UE, vector"
attr unit ""
vector 49 Highway.car[24].lteNic.mac macNodeID:vector ETV
attr source macNodeID
attr title "Reports Mac NodeID to allow for trans to nodeID, vector"
vector 50 Highway.car[25].lteNic.phy servingCell:vector ETV
attr source servingCell
attr title "ID of the serving eNodeB for the UE, vector"
attr unit ""
vector 51 Highway.car[25].lteNic.mac macNodeID:vector ETV
attr source macNodeID
attr title "Reports Mac NodeID to allow for trans to nodeID, vector"
vector 52 Highway.car[26].lteNic.phy servingCell:vector ETV
attr source servingCell
attr title "ID of the serving eNodeB for the UE, vector"
attr unit ""
vector 53 Highway.car[26].lteNic.mac macNodeID:vector ETV
attr source macNodeID
attr title "Reports Mac NodeID to allow for trans to nodeID, vector"
vector 54 Highway.car[27].lteNic.phy servingCell:vector ETV
attr source servingCell
attr title "ID of the serving eNodeB for the UE, vector"
attr unit ""
vector 55 Highway.car[27].lteNic.mac macNodeID:vector ETV
attr source macNodeID
attr title "Reports Mac NodeID to allow for trans to nodeID, vector"
vector 56 Highway.car[28].lteNic.phy servingCell:vector ETV
attr source servingCell
attr title "ID of the serving eNodeB for the UE, vector"
attr unit ""
vector 57 Highway.car[28].lteNic.mac macNodeID:vector ETV
attr source macNodeID
attr title "Reports Mac NodeID to allow for trans to nodeID, vector"
vector 58 Highway.car[29].lteNic.phy servingCell:vector ETV
attr source servingCell
attr title "ID of the serving eNodeB for the UE, vector"
attr unit ""
vector 59 Highway.car[29].lteNic.mac macNodeID:vector ETV
attr source macNodeID
attr title "Reports Mac NodeID to allow for trans to nodeID, vector"
vector 60 Highway.car[0].lteNic.phy posX:vector ETV
attr source posX
attr title "X position of node (at reception time), vector"
vector 61 Highway.car[0].lteNic.phy posY:vector ETV
attr source posY
attr title "Y position of node (at reception time), vector"
vector 62 Highway.car[1].lteNic.phy posX:vector ETV
attr source posX
attr title "X position of node (at reception time), vector"
vector 63 Highway.car[1].lteNic.phy posY:vector ETV
attr source posY
attr title "Y position of node (at reception time), vector"
vector 64 Highway.car[2].lteNic.phy posX:vector ETV
attr source posX
attr title "X position of node (at reception time), vector"
vector 65 Highway.car[2].lteNic.phy posY:vector ETV
attr source posY
attr title "Y position of node (at reception time), vector"
vector 66 Highway.car[3].lteNic.phy posX:vector ETV
attr source posX
attr title "X position of node (at reception time), vector"
vector 67 Highway.car[3].lteNic.phy posY:vector ETV
attr source posY
attr title "Y position of node (at reception time), vector"
vector 68 Highway.car[4].lteNic.phy posX:vector ETV
attr source posX
attr title "X position of node (at reception time), vector"
vector 69 Highway.car[4].lteNic.phy posY:vector ETV
attr source posY
attr title "Y position of node (at reception time), vector"
vector 70 Highway.car[5].lteNic.phy posX:vector ETV
attr source posX
attr title "X position of node (at reception time), vector"
vector 71 Highway.car[5].lteNic.phy posY:vector ETV
attr source posY
attr title "Y position of node (at reception time), vector"
vector 72 Highway.car[6].lteNic.phy posX:vector ETV
attr source posX
attr title "X position of node (at reception time), vector"
vector 73 Highway.car[6].lteNic.phy posY:vector ETV
attr source posY
attr title "Y position of node (at reception time), vector"
vector 74 Highway.car[7].lteNic.phy posX:vector ETV
attr source posX
attr title "X position of node (at reception time), vector"
vector 75 Highway.car[7].lteNic.phy posY:vector ETV
attr source posY
attr title "Y position of node (at reception time), vector"
vector 76 Highway.car[8].lteNic.phy posX:vector ETV
attr source posX
attr title "X position of node (at reception time), vector"
vector 77 Highway.car[8].lteNic.phy posY:vector ETV
attr source posY
attr title "Y position of node (at reception time), vector"
vector 78 Highway.car[9].lteNic.phy posX:vector ETV
attr source posX
attr title "X position of node (at reception time), vector"
vector 79 Highway.car[9].lteNic.phy posY:vector ETV
attr source posY
attr title "Y position of node (at reception time), vector"
vector 80 Highway.car[10].lteNic.phy posX:vector ETV
attr source posX
attr title "X position of node (at reception time), vector"
vector 81 Highway.car[10].lteNic.phy posY:vector ETV
attr source posY
attr title "Y position of node (at reception time), vector"
vector 82 Highway.car[11].lteNic.phy posX:vector ETV
attr source posX
attr title "X position of node (at reception time), vector"
vector 83 Highway.car[11].lteNic.phy posY:vector ETV
attr source posY
attr title "Y position of node (at reception time), vector"
vector 84 Highway.car[12].lteNic.phy posX:vector ETV
attr source posX
attr title "X position of node (at reception time), vector"
vector 85 Highway.car[12].lteNic.phy posY:vector ETV
attr source posY
attr title "Y position of node (at reception time), vector"
vector 86 Highway.car[13].lteNic.phy posX:vector ETV
attr source posX
attr title "X position of node (at reception time), vector"
vector 87 Highway.car[13].lteNic.phy posY:vector ETV
attr source posY
attr title "Y position of node (at reception time), vector"
vector 88 Highway.car[13].lteNic.phy cbr:vector ETV
attr source cbr
attr title "Channel Busy Ratio, vector"
vector 89 Highway.car[13].lteNic.phy cbrPscch:vector ETV
attr source cbrPscch
attr title "Channel Busy Ratio for PSCCH, vector"
vector 90 Highway.car[14].lteNic.phy posX:vector ETV
attr source posX
attr title "X position of node (at reception time), vector"
vector 91 Highway.car[14].lteNic.phy posY:vector ETV
attr source posY
attr title "Y position of node (at reception time), vector"
vector 92 Highway.car[15].lteNic.phy posX:vector ETV
attr source posX
attr title "X position of node (at reception time), vector"
vector 93 Highway.car[15].lteNic.phy posY:vector ETV
attr source posY
attr title "Y position of node (at reception time), vector"
vector 94 Highway.car[16].lteNic.phy posX:vector ETV
attr source posX
attr title "X position of node (at reception time), vector"
vector 95 Highway.car[16].lteNic.phy posY:vector ETV
attr source posY
attr title "Y position of node (at reception time), vector"
vector 96 Highway.car[17].lteNic.phy posX:vector ETV
attr source posX
attr title "X position of node (at reception time), vector"
vector 97 Highway.car[17].lteNic.phy posY:vector ETV
attr source posY
attr title "Y position of node (at reception time), vector"
vector 98 Highway.car[18].lteNic.phy posX:vector ETV
attr source posX
attr title "X position of node (at reception time), vector"
vector 99 Highway.car[18].lteNic.phy posY:vector ETV
attr source posY
attr title "Y position of node (at reception time), vector"
vector 100 Highway.car[19].lteNic.phy posX:vector ETV
attr source posX
attr title "X position of node (at reception time), vector"
vector 101 Highway.car[19].lteNic.phy posY:vector ETV
attr source posY
attr title "Y position of node (at reception time), vector"
vector 102 Highway.car[20].lteNic.phy posX:vector ETV
attr source posX
attr title "X position of node (at reception time), vector"
vector 103 Highway.car[20].lteNic.phy posY:vector ETV
attr source posY
attr title "Y position of node (at reception time), vector"
vector 104 Highway.car[21].lteNic.phy posX:vector ETV
attr source posX
attr title "X position of node (at reception time), vector"
vector 105 Highway.car[21].lteNic.phy posY:vector ETV
attr source posY
attr title "Y position of node (at reception time), vector"
vector 106 Highway.car[22].lteNic.phy posX:vector ETV
attr source posX
attr title "X position of node (at reception time), vector"
vector 107 Highway.car[22].lteNic.phy posY:vector ETV
attr source posY
attr title "Y position of node (at reception time), vector"
vector 108 Highway.car[23].lteNic.phy posX:vector ETV
attr source posX
attr title "X position of node (at reception time), vector"
vector 109 Highway.car[23].lteNic.phy posY:vector ETV
attr source posY
attr title "Y position of node (at reception time), vector"
vector 110 Highway.car[24].lteNic.phy posX:vector ETV
attr source posX
attr title "X position of node (at reception time), vector"
vector 111 Highway.car[24].lteNic.phy posY:vector ETV
attr source posY
attr title "Y position of node (at reception time), vector"
vector 112 Highway.car[25].lteNic.phy posX:vector ETV
attr source posX
attr title "X position of node (at reception time), vector"
vector 113 Highway.car[25].lteNic.phy posY:vector ETV
attr source posY
attr title "Y position of node (at reception time), vector"
vector 114 Highway.car[26].lteNic.phy posX:vector ETV
attr source posX
attr title "X position of node (at reception time), vector"
vector 115 Highway.car[26].lteNic.phy posY:vector ETV
attr source posY
attr title "Y position of node (at reception time), vector"
vector 116 Highway.car[27].lteNic.phy posX:vector ETV
attr source posX
attr title "X position of node (at reception time), vector"
vector 117 Highway.car[27].lteNic.phy posY:vector ETV
attr source posY
attr title "Y position of node (at reception time), vector"
vector 118 Highway.car[28].lteNic.phy posX:vector ETV
attr source posX
attr title "X position of node (at reception time), vector"
vector 119 Highway.car[28].lteNic.phy posY:vector ETV
attr source posY
attr title "Y position of node (at reception time), vector"
vector 120 Highway.car[29].lteNic.phy posX:vector ETV
attr source posX
attr title "X position of node (at reception time), vector"
vector 121 Highway.car[29].lteNic.phy posY:vector ETV
attr source posY
attr title "Y position of node (at reception time), vector"
vector 122 Highway.car[13].lteNic.mac receivedPacketFromLowerLayer:vector(packetBytes) ETV
attr interpolationmode none
attr source receivedPacketFromLowerLayer
vector 123 Highway.car[13].lteNic.mac sentPacketToUpperLayer:vector(packetBytes) ETV
attr interpolationmode none
attr source sentPacketToUpperLayer
vector 124 Highway.car[13].lteNic.pdcpRrc sentPacketToUpperLayer:vector(packetBytes) ETV
attr interpolationmode none
attr source sentPacketToUpperLayer
vector 125 Highway.car[13].appl cbr:vector ETV
attr source cbr
attr title "Channel Busy Ratio, vector"
attr unit ""
vector 126 Highway.car[26].appl sentMsg:vector ETV
attr source sentMsg
attr title "Messages sent, vector"
attr unit ""
vector 127 Highway.car[26].lteNic.pdcpRrc receivedPacketFromUpperLayer:vector(packetBytes) ETV
attr interpolationmode none
attr source receivedPacketFromUpperLayer
vector 128 Highway.car[26].lteNic.pdcpRrc sentPacketToLowerLayer:vector(packetBytes) ETV
attr interpolationmode none
attr source sentPacketToLowerLayer
vector 129 Highway.car[26].lteNic.mac resourceReselectionCounter:vector ETV
attr source resourceReselectionCounter
attr title "ResourceReselectionCounter selectedNumber of transmissions, vector"
vector 130 Highway.car[26].lteNic.mac sentPacketToLowerLayer:vector(packetBytes) ETV
attr interpolationmode none
attr source sentPacketToLowerLayer
vector 131 Highway.car[26].lteNic.mac grantRequests:vector ETV
attr source grantRequests
attr title "Total number of requested grants, vector"
vector 132 Highway.car[26].lteNic.mac receivedPacketFromUpperLayer:vector(packetBytes) ETV
attr interpolationmode none
attr source receivedPacketFromUpperLayer
vector 133 Highway.car[26].lteNic.mac receivedPacketFromLowerLayer:vector(packetBytes) ETV
attr interpolationmode none
attr source receivedPacketFromLowerLayer
vector 134 Highway.car[26].lteNic.mac grantStartTime:vector ETV
attr source grantStartTime
attr title "Grant StartTime, vector"
vector 135 Highway.car[26].lteNic.mac selectedSubchannelIndex:vector ETV
attr source selectedSubchannelIndex
attr title "SelectedSubchannelIndex, vector"
vector 136 Highway.car[26].lteNic.mac selectedNumSubchannels:vector ETV
attr source selectedNumSubchannels
attr title "SelectedNumSubchannels, vector"
vector 137 Highway.car[26].lteNic.mac takingReservedGrant:vector ETV
attr source takingReservedGrant
attr title "takingReservedGrant, vector"
vector 138 Highway.car[26].lteNic.mac sentPacketToUpperLayer:vector(packetBytes) ETV
attr interpolationmode none
attr source sentPacketToUpperLayer
vector 139 Highway.car[26].lteNic.mac selectedMCS:vector ETV
attr source selectedMCS
attr title "MCS selected for transmission, vector"
vector 140 Highway.car[26].lteNic.phy sciSent:vector ETV
attr source sciSent
attr title "Number of sci sent, vector"
vector 141 Highway.car[26].lteNic.phy subchannelSent:vector ETV
attr source subchannelSent
attr title "starting Subchannel used for sent message, vector"
vector 142 Highway.car[26].lteNic.phy subchannelsUsedToSend:vector ETV
attr source subchannelsUsedToSend
attr title "Number of subchannels used for message, vector"
vector 143 Highway.car[26].lteNic.phy tbSent:vector ETV
attr source tbSent
attr title "Number of tb sent, vector"
vector 144 Highway.car[0].lteNic.phy txRxDistanceSCI:vector ETV
attr source txRxDistanceSCI
attr title "Distance between transmitter and receiver, vector"
vector 145 Highway.car[0].lteNic.phy senderID:vector ETV
attr source senderID
attr title "ID of node who sent message, vector"
vector 146 Highway.car[0].lteNic.phy sciReceived:vector ETV
attr source sciReceived
attr title "Number of received sci, vector"
vector 147 Highway.car[0].lteNic.phy sciUnsensed:vector ETV
attr source sciUnsensed
attr title "Number of failed SCIs due to RSRP below threshold, vector"
vector 148 Highway.car[0].lteNic.phy sciDecoded:vector ETV
attr source sciDecoded
attr title "Number of sci successfully decoded, vector"
vector 149 Highway.car[0].lteNic.phy sciFailedDueToProp:vector ETV
attr source sciFailedDueToProp
attr title "Number of failed SCIs due to propogation, vector"
vector 150 Highway.car[0].lteNic.phy sciFailedDueToInterference:vector ETV
attr source sciFailedDueToInterference
attr title "Number of failed SCIs due to interference, vector"
vector 151 Highway.car[0].lteNic.phy sciFailedHalfDuplex:vector ETV
attr source sciFailedHalfDuplex
attr title "Number of failed SCIs due to Half Duplex, vector"
vector 152 Highway.car[0].lteNic.phy subchannelReceived:vector ETV
attr source subchannelReceived
attr title "Initial Subchannel on which packet is received, vector"
vector 153 Highway.car[0].lteNic.phy subchannelsUsed:vector ETV
attr source subchannelsUsed
attr title "Number of Subchannels used for the received packet, vector"
vector 154 Highway.car[0].lteNic.phy txRxDistanceTB:vector ETV
attr source txRxDistanceTB
attr title "Distance between transmitter and receiver, vector"
vector 155 Highway.car[0].lteNic.phy tbReceived:vector ETV
attr source tbReceived
attr title "Number of tb received, vector"
vector 156 Highway.car[0].lteNic.phy tbDecoded:vector ETV
attr source tbDecoded
attr title "Number of tb Decoded, vector"
vector 157 Highway.car[0].lteNic.phy tbFailedDueToNoSCI:vector ETV
attr source tbFailedDueToNoSCI
attr title "Number of tb not decoded due to no SCI, vector"
vector 158 Highway.car[0].lteNic.phy tbFailedDueToProp:vector ETV
attr source tbFailedDueToProp
attr title "Number of failed TBs due to propogation, vector"
vector 159 Highway.car[0].lteNic.phy tbFailedDueToInterference:vector ETV
attr source tbFailedDueToInterference
attr title "Number of failed TBs due to interference, vector"
vector 160 Highway.car[0].lteNic.phy tbFailedButSCIReceived:vector ETV
attr source tbFailedButSCIReceived
attr title "Number of failed TBs with a decoded SCI, vector"
vector 161 Highway.car[0].lteNic.phy tbFailedHalfDuplex:vector ETV
attr source tbFailedHalfDuplex
attr title "Number of failed TBs due to Half Duplex, vector"
vector 162 Highway.car[0].lteNic.phy periodic:vector ETV
attr source periodic
attr title "Identifies traffic as periodic or aperiodic, vector"
vector 163 Highway.car[0].lteNic.phy tbFailedDueToPropIgnoreSCI:vector ETV
attr source tbFailedDueToPropIgnoreSCI
attr title "Number of failed TBs due to propogation, vector"
vector 164 Highway.car[0].lteNic.phy tbFailedDueToInterferenceIgnoreSCI:vector ETV
attr source tbFailedDueToInterferenceIgnoreSCI
attr title "Number of failed TBs due to interference, vector"
vector 165 Highway.car[0].lteNic.phy tbDecodedIgnoreSCI:vector ETV
attr source tbDecodedIgnoreSCI
attr title "Number of failed TBs due to interference, vector"
vector 166 Highway.car[0].lteNic.mac receivedPacketFromLowerLayer:vector(packetBytes) ETV
attr interpolationmode none
attr source receivedPacketFromLowerLayer
vector 167 Highway.car[1].lteNic.phy txRxDistanceSCI:vector ETV
attr source txRxDistanceSCI
attr title "Distance between transmitter and receiver, vector"
vector 168 Highway.car[1].lteNic.phy senderID:vector ETV
attr source senderID
attr title "ID of node who sent message, vector"
vector 169 Highway.car[1].lteNic.phy sciReceived:vector ETV
attr source sciReceived
attr title "Number of received sci, vector"
vector 170 Highway.car[1].lteNic.phy sciUnsensed:vector ETV
attr source sciUnsensed
attr title "Number of failed SCIs due to RSRP below threshold, vector"
vector 171 Highway.car[1].lteNic.phy sciDecoded:vector ETV
attr source sciDecoded
attr title "Number of sci successfully decoded, vector"
vector 172 Highway.car[1].lteNic.phy sciFailedDueToProp:vector ETV
attr source sciFailedDueToProp
attr title "Number of failed SCIs due to propogation, vector"
vector 173 Highway.car[1].lteNic.phy sciFailedDueToInterference:vector ETV
attr source sciFailedDueToInterference
attr title "Number of failed SCIs due to interference, vector"
vector 174 Highway.car[1].lteNic.phy sciFailedHalfDuplex:vector ETV
attr source sciFailedHalfDuplex
attr title "Number of failed SCIs due to Half Duplex, vector"
vector 175 Highway.car[1].lteNic.phy subchannelReceived:vector ETV
attr source subchannelReceived
attr title "Initial Subchannel on which packet is received, vector"
vector 176 Highway.car[1].lteNic.phy subchannelsUsed:vector ETV
attr source subchannelsUsed
attr title "Number of Subchannels used for the received packet, vector"
vector 177 Highway.car[1].lteNic.phy txRxDistanceTB:vector ETV
attr source txRxDistanceTB
attr title "Distance between transmitter and receiver, vector"
vector 178 Highway.car[1].lteNic.phy tbReceived:vector ETV
attr source tbReceived
attr title "Number of tb received, vector"
vector 179 Highway.car[1].lteNic.phy tbDecoded:vector ETV
attr source tbDecoded
attr title "Number of tb Decoded, vector"
vector 180 Highway.car[1].lteNic.phy tbFailedDueToNoSCI:vector ETV
attr source tbFailedDueToNoSCI
attr title "Number of tb not decoded due to no SCI, vector"
vector 181 Highway.car[1].lteNic.phy tbFailedDueToProp:vector ETV
attr source tbFailedDueToProp
attr title "Number of failed TBs due to propogation, vector"
vector 182 Highway.car[1].lteNic.phy tbFailedDueToInterference:vector ETV
attr source tbFailedDueToInterference
attr title "Number of failed TBs due to interference, vector"
vector 183 Highway.car[1].lteNic.phy tbFailedButSCIReceived:vector ETV
attr source tbFailedButSCIReceived
attr title "Number of failed TBs with a decoded SCI, vector"
vector 184 Highway.car[1].lteNic.phy tbFailedHalfDuplex:vector ETV
attr source tbFailedHalfDuplex
attr title "Number of failed TBs due to Half Duplex, vector"
vector 185 Highway.car[1].lteNic.phy periodic:vector ETV
attr source periodic
attr title "Identifies traffic as periodic or aperiodic, vector"
vector 186 Highway.car[1].lteNic.phy tbFailedDueToPropIgnoreSCI:vector ETV
attr source tbFailedDueToPropIgnoreSCI
attr title "Number of failed TBs due to propogation, vector"
vector 187 Highway.car[1].lteNic.phy tbFailedDueToInterferenceIgnoreSCI:vector ETV
attr source tbFailedDueToInterferenceIgnoreSCI
attr title "Number of failed TBs due to interference, vector"
vector 188 Highway.car[1].lteNic.phy tbDecodedIgnoreSCI:vector ETV
attr source tbDecodedIgnoreSCI
attr title "Number of failed TBs due to interference, vector"
vector 189 Highway.car[1].lteNic.mac receivedPacketFromLowerLayer:vector(packetBytes) ETV
attr interpolationmode none
attr source receivedPacketFromLowerLayer
vector 190 Highway.car[2].lteNic.phy txRxDistanceSCI:vector ETV
attr source txRxDistanceSCI
attr title "Distance between transmitter and receiver, vector"
vector 191 Highway.car[2].lteNic.phy senderID:vector ETV
attr source senderID
attr title "ID of node who sent message, vector"
vector 192 Highway.car[2].lteNic.phy sciReceived:vector ETV
attr source sciReceived
attr title "Number of received sci, vector"
vector 193 Highway.car[2].lteNic.phy sciUnsensed:vector ETV
attr source sciUnsensed
attr title "Number of failed SCIs due to RSRP below threshold, vector"
vector 194 Highway.car[2].lteNic.phy sciDecoded:vector ETV
attr source sciDecoded
attr title "Number of sci successfully decoded, vector"
vector 195 Highway.car[2].lteNic.phy sciFailedDueToProp:vector ETV
attr source sciFailedDueToProp
attr title "Number of failed SCIs due to propogation, vector"
vector 196 Highway.car[2].lteNic.phy sciFailedDueToInterference:vector ETV
attr source sciFailedDueToInterference
attr title "Number of failed SCIs due to interference, vector"
vector 197 Highway.car[2].lteNic.phy sciFailedHalfDuplex:vector ETV
attr source sciFailedHalfDuplex
attr title "Number of failed SCIs due to Half Duplex, vector"
vector 198 Highway.car[2].lteNic.phy subchannelReceived:vector ETV
attr source subchannelReceived
attr title "Initial Subchannel on which packet is received, vector"
vector 199 Highway.car[2].lteNic.phy subchannelsUsed:vector ETV
attr source subchannelsUsed
attr title "Number of Subchannels used for the received packet, vector"
vector 200 Highway.car[2].lteNic.phy txRxDistanceTB:vector ETV
attr source txRxDistanceTB
attr title "Distance between transmitter and receiver, vector"
vector 201 Highway.car[2].lteNic.phy tbReceived:vector ETV
attr source tbReceived
attr title "Number of tb received, vector"
vector 202 Highway.car[2].lteNic.phy tbDecoded:vector ETV
attr source tbDecoded
attr title "Number of tb Decoded, vector"
vector 203 Highway.car[2].lteNic.phy tbFailedDueToNoSCI:vector ETV
attr source tbFailedDueToNoSCI
attr title "Number of tb not decoded due to no SCI, vector"
vector 204 Highway.car[2].lteNic.phy tbFailedDueToProp:vector ETV
attr source tbFailedDueToProp
attr title "Number of failed TBs due to propogation, vector"
vector 205 Highway.car[2].lteNic.phy tbFailedDueToInterference:vector ETV
attr source tbFailedDueToInterference
attr title "Number of failed TBs due to interference, vector"
vector 206 Highway.car[2].lteNic.phy tbFailedButSCIReceived:vector ETV
attr source tbFailedButSCIReceived
attr title "Number of failed TBs with a decoded SCI, vector"
vector 207 Highway.car[2].lteNic.phy tbFailedHalfDuplex:vector ETV
attr source tbFailedHalfDuplex
attr title "Number of failed TBs due to Half Duplex, vector"
vector 208 Highway.car[2].lteNic.phy periodic:vector ETV
attr source periodic
attr title "Identifies traffic as periodic or aperiodic, vector"
vector 209 Highway.car[2].lteNic.phy tbFailedDueToPropIgnoreSCI:vector ETV
attr source tbFailedDueToPropIgnoreSCI
attr title "Number of failed TBs due to propogation, vector"
vector 210 Highway.car[2].lteNic.phy tbFailedDueToInterferenceIgnoreSCI:vector ETV
attr source tbFailedDueToInterferenceIgnoreSCI
attr title "Number of failed TBs due to interference, vector"
vector 211 Highway.car[2].lteNic.phy tbDecodedIgnoreSCI:vector ETV
attr source tbDecodedIgnoreSCI
attr title "Number of failed TBs due to interference, vector"
vector 212 Highway.car[2].lteNic.mac receivedPacketFromLowerLayer:vector(packetBytes) ETV
attr interpolationmode none
attr source receivedPacketFromLowerLayer
vector 213 Highway.car[3].lteNic.phy txRxDistanceSCI:vector ETV
attr source txRxDistanceSCI
attr title "Distance between transmitter and receiver, vector"
vector 214 Highway.car[3].lteNic.phy senderID:vector ETV
attr source senderID
attr title "ID of node who sent message, vector"
vector 215 Highway.car[3].lteNic.phy sciReceived:vector ETV
attr source sciReceived
attr title "Number of received sci, vector"
vector 216 Highway.car[3].lteNic.phy sciUnsensed:vector ETV
attr source sciUnsensed
attr title "Number of failed SCIs due to RSRP below threshold, vector"
vector 217 Highway.car[3].lteNic.phy sciDecoded:vector ETV
attr source sciDecoded
attr title "Number of sci successfully decoded, vector"
vector 218 Highway.car[3].lteNic.phy sciFailedDueToProp:vector ETV
attr source sciFailedDueToProp
attr title "Number of failed SCIs due to propogation, vector"
vector 219 Highway.car[3].lteNic.phy sciFailedDueToInterference:vector ETV
attr source sciFailedDueToInterference
attr title "Number of failed SCIs due to interference, vector"
vector 220 Highway.car[3].lteNic.phy sciFailedHalfDuplex:vector ETV
attr source sciFailedHalfDuplex
attr title "Number of failed SCIs due to Half Duplex, vector"
vector 221 Highway.car[3].lteNic.phy subchannelReceived:vector ETV
attr source subchannelReceived
attr title "Initial Subchannel on which packet is received, vector"
vector 222 Highway.car[3].lteNic.phy subchannelsUsed:vector ETV
attr source subchannelsUsed
attr title "Number of Subchannels used for the received packet, vector"
vector 223 Highway.car[3].lteNic.phy txRxDistanceTB:vector ETV
attr source txRxDistanceTB
attr title "Distance between transmitter and receiver, vector"
vector 224 Highway.car[3].lteNic.phy tbReceived:vector ETV
attr source tbReceived
attr title "Number of tb received, vector"
vector 225 Highway.car[3].lteNic.phy tbDecoded:vector ETV
attr source tbDecoded
attr title "Number of tb Decoded, vector"
vector 226 Highway.car[3].lteNic.phy tbFailedDueToNoSCI:vector ETV
attr source tbFailedDueToNoSCI
attr title "Number of tb not decoded due to no SCI, vector"
vector 227 Highway.car[3].lteNic.phy tbFailedDueToProp:vector ETV
attr source tbFailedDueToProp
attr title "Number of failed TBs due to propogation, vector"
vector 228 Highway.car[3].lteNic.phy tbFailedDueToInterference:vector ETV
attr source tbFailedDueToInterference
attr title "Number of failed TBs due to interference, vector"
vector 229 Highway.car[3].lteNic.phy tbFailedButSCIReceived:vector ETV
attr source tbFailedButSCIReceived
attr title "Number of failed TBs with a decoded SCI, vector"
vector 230 Highway.car[3].lteNic.phy tbFailedHalfDuplex:vector ETV
attr source tbFailedHalfDuplex
attr title "Number of failed TBs due to Half Duplex, vector"
vector 231 Highway.car[3].lteNic.phy periodic:vector ETV
attr source periodic
attr title "Identifies traffic as periodic or aperiodic, vector"
vector 232 Highway.car[3].lteNic.phy tbFailedDueToPropIgnoreSCI:vector ETV
attr source tbFailedDueToPropIgnoreSCI
attr title "Number of failed TBs due to propogation, vector"
vector 233 Highway.car[3].lteNic.phy tbFailedDueToInterferenceIgnoreSCI:vector ETV
attr source tbFailedDueToInterferenceIgnoreSCI
attr title "Number of failed TBs due to interference, vector"
vector 234 Highway.car[3].lteNic.phy tbDecodedIgnoreSCI:vector ETV
attr source tbDecodedIgnoreSCI
attr title "Number of failed TBs due to interference, vector"
vector 235 Highway.car[3].lteNic.mac receivedPacketFromLowerLayer:vector(packetBytes) ETV
attr interpolationmode none
attr source receivedPacketFromLowerLayer
vector 236 Highway.car[4].lteNic.phy txRxDistanceSCI:vector ETV
attr source txRxDistanceSCI
attr title "Distance between transmitter and receiver, vector"
vector 237 Highway.car[4].lteNic.phy senderID:vector ETV
attr source senderID
attr title "ID of node who sent message, vector"
vector 238 Highway.car[4].lteNic.phy sciReceived:vector ETV
attr source sciReceived
attr title "Number of received sci, vector"
vector 239 Highway.car[4].lteNic.phy sciUnsensed:vector ETV
attr source sciUnsensed
attr title "Number of failed SCIs due to RSRP below threshold, vector"
vector 240 Highway.car[4].lteNic.phy sciDecoded:vector ETV
attr source sciDecoded
attr title "Number of sci successfully decoded, vector"
vector 241 Highway.car[4].lteNic.phy sciFailedDueToProp:vector ETV
attr source sciFailedDueToProp
attr title "Number of failed SCIs due to propogation, vector"
vector 242 Highway.car[4].lteNic.phy sciFailedDueToInterference:vector ETV
attr source sciFailedDueToInterference
attr title "Number of failed SCIs due to interference, vector"
vector 243 Highway.car[4].lteNic.phy sciFailedHalfDuplex:vector ETV
attr source sciFailedHalfDuplex
attr title "Number of failed SCIs due to Half Duplex, vector"
vector 244 Highway.car[4].lteNic.phy subchannelReceived:vector ETV
attr source subchannelReceived
attr title "Initial Subchannel on which packet is received, vector"
vector 245 Highway.car[4].lteNic.phy subchannelsUsed:vector ETV
attr source subchannelsUsed
attr title "Number of Subchannels used for the received packet, vector"
vector 246 Highway.car[4].lteNic.phy txRxDistanceTB:vector ETV
attr source txRxDistanceTB
attr title "Distance between transmitter and receiver, vector"
vector 247 Highway.car[4].lteNic.phy tbReceived:vector ETV
attr source tbReceived
attr title "Number of tb received, vector"
vector 248 Highway.car[4].lteNic.phy tbDecoded:vector ETV
attr source tbDecoded
attr title "Number of tb Decoded, vector"
vector 249 Highway.car[4].lteNic.phy tbFailedDueToNoSCI:vector ETV
attr source tbFailedDueToNoSCI
attr title "Number of tb not decoded due to no SCI, vector"
vector 250 Highway.car[4].lteNic.phy tbFailedDueToProp:vector ETV
attr source tbFailedDueToProp
attr title "Number of failed TBs due to propogation, vector"
vector 251 Highway.car[4].lteNic.phy tbFailedDueToInterference:vector ETV
attr source tbFailedDueToInterference
attr title "Number of failed TBs due to interference, vector"
vector 252 Highway.car[4].lteNic.phy tbFailedButSCIReceived:vector ETV
attr source tbFailedButSCIReceived
attr title "Number of failed TBs with a decoded SCI, vector"
vector 253 Highway.car[4].lteNic.phy tbFailedHalfDuplex:vector ETV
attr source tbFailedHalfDuplex
attr title "Number of failed TBs due to Half Duplex, vector"
vector 254 Highway.car[4].lteNic.phy periodic:vector ETV
attr source periodic
attr title "Identifies traffic as periodic or aperiodic, vector"
vector 255 Highway.car[4].lteNic.phy tbFailedDueToPropIgnoreSCI:vector ETV
attr source tbFailedDueToPropIgnoreSCI
attr title "Number of failed TBs due to propogation, vector"
vector 256 Highway.car[4].lteNic.phy tbFailedDueToInterferenceIgnoreSCI:vector ETV
attr source tbFailedDueToInterferenceIgnoreSCI
attr title "Number of failed TBs due to interference, vector"
vector 257 Highway.car[4].lteNic.phy tbDecodedIgnoreSCI:vector ETV
attr source tbDecodedIgnoreSCI
attr title "Number of failed TBs due to interference, vector"
vector 258 Highway.car[4].lteNic.mac receivedPacketFromLowerLayer:vector(packetBytes) ETV
attr interpolationmode none
attr source receivedPacketFromLowerLayer
vector 259 Highway.car[5].lteNic.phy txRxDistanceSCI:vector ETV
attr source txRxDistanceSCI
attr title "Distance between transmitter and receiver, vector"
vector 260 Highway.car[5].lteNic.phy senderID:vector ETV
attr source senderID
attr title "ID of node who sent message, vector"
vector 261 Highway.car[5].lteNic.phy sciReceived:vector ETV
attr source sciReceived
attr title "Number of received sci, vector"
vector 262 Highway.car[5].lteNic.phy sciUnsensed:vector ETV
attr source sciUnsensed
attr title "Number of failed SCIs due to RSRP below threshold, vector"
vector 263 Highway.car[5].lteNic.phy sciDecoded:vector ETV
attr source sciDecoded
attr title "Number of sci successfully decoded, vector"
vector 264 Highway.car[5].lteNic.phy sciFailedDueToProp:vector ETV
attr source sciFailedDueToProp
attr title "Number of failed SCIs due to propogation, vector"
vector 265 Highway.car[5].lteNic.phy sciFailedDueToInterference:vector ETV
attr source sciFailedDueToInterference
attr title "Number of failed SCIs due to interference, vector"
vector 266 Highway.car[5].lteNic.phy sciFailedHalfDuplex:vector ETV
attr source sciFailedHalfDuplex
attr title "Number of failed SCIs due to Half Duplex, vector"
vector 267 Highway.car[5].lteNic.phy subchannelReceived:vector ETV
attr source subchannelReceived
attr title "Initial Subchannel on which packet is received, vector"
vector 268 Highway.car[5].lteNic.phy subchannelsUsed:vector ETV
attr source subchannelsUsed
attr title "Number of Subchannels used for the received packet, vector"
vector 269 Highway.car[5].lteNic.phy txRxDistanceTB:vector ETV
attr source txRxDistanceTB
attr title "Distance between transmitter and receiver, vector"
vector 270 Highway.car[5].lteNic.phy tbReceived:vector ETV
attr source tbReceived
attr title "Number of tb received, vector"
vector 271 Highway.car[5].lteNic.phy tbDecoded:vector ETV
attr source tbDecoded
attr title "Number of tb Decoded, vector"
vector 272 Highway.car[5].lteNic.phy tbFailedDueToNoSCI:vector ETV
attr source tbFailedDueToNoSCI
attr title "Number of tb not decoded due to no SCI, vector"
vector 273 Highway.car[5].lteNic.phy tbFailedDueToProp:vector ETV
attr source tbFailedDueToProp
attr title "Number of failed TBs due to propogation, vector"
vector 274 Highway.car[5].lteNic.phy tbFailedDueToInterference:vector ETV
attr source tbFailedDueToInterference
attr title "Number of failed TBs due to interference, vector"
vector 275 Highway.car[5].lteNic.phy tbFailedButSCIReceived:vector ETV
attr source tbFailedButSCIReceived
attr title "Number of failed TBs with a decoded SCI, vector"
vector 276 Highway.car[5].lteNic.phy tbFailedHalfDuplex:vector ETV
attr source tbFailedHalfDuplex
attr title "Number of failed TBs due to Half Duplex, vector"
vector 277 Highway.car[5].lteNic.phy periodic:vector ETV
attr source periodic
attr title "Identifies traffic as periodic or aperiodic, vector"
vector 278 Highway.car[5].lteNic.phy tbFailedDueToPropIgnoreSCI:vector ETV
attr source tbFailedDueToPropIgnoreSCI
attr title "Number of failed TBs due to propogation, vector"
vector 279 Highway.car[5].lteNic.phy tbFailedDueToInterferenceIgnoreSCI:vector ETV
attr source tbFailedDueToInterferenceIgnoreSCI
attr title "Number of failed TBs due to interference, vector"
vector 280 Highway.car[5].lteNic.phy tbDecodedIgnoreSCI:vector ETV
attr source tbDecodedIgnoreSCI
attr title "Number of failed TBs due to interference, vector"
vector 281 Highway.car[5].lteNic.mac receivedPacketFromLowerLayer:vector(packetBytes) ETV
attr interpolationmode none
attr source receivedPacketFromLowerLayer
vector 282 Highway.car[6].lteNic.phy txRxDistanceSCI:vector ETV
attr source txRxDistanceSCI
attr title "Distance between transmitter and receiver, vector"
vector 283 Highway.car[6].lteNic.phy senderID:vector ETV
attr source senderID
attr title "ID of node who sent message, vector"
vector 284 Highway.car[6].lteNic.phy sciReceived:vector ETV
attr source sciReceived
attr title "Number of received sci, vector"
vector 285 Highway.car[6].lteNic.phy sciUnsensed:vector ETV
attr source sciUnsensed
attr title "Number of failed SCIs due to RSRP below threshold, vector"
vector 286 Highway.car[6].lteNic.phy sciDecoded:vector ETV
attr source sciDecoded
attr title "Number of sci successfully decoded, vector"
vector 287 Highway.car[6].lteNic.phy sciFailedDueToProp:vector ETV
attr source sciFailedDueToProp
attr title "Number of failed SCIs due to propogation, vector"
vector 288 Highway.car[6].lteNic.phy sciFailedDueToInterference:vector ETV
attr source sciFailedDueToInterference
attr title "Number of failed SCIs due to interference, vector"
vector 289 Highway.car[6].lteNic.phy sciFailedHalfDuplex:vector ETV
attr source sciFailedHalfDuplex
attr title "Number of failed SCIs due to Half Duplex, vector"
vector 290 Highway.car[6].lteNic.phy subchannelReceived:vector ETV
attr source subchannelReceived
attr title "Initial Subchannel on which packet is received, vector"
vector 291 Highway.car[6].lteNic.phy subchannelsUsed:vector ETV
attr source subchannelsUsed
attr title "Number of Subchannels used for the received packet, vector"
vector 292 Highway.car[6].lteNic.phy txRxDistanceTB:vector ETV
attr source txRxDistanceTB
attr title "Distance between transmitter and receiver, vector"
vector 293 Highway.car[6].lteNic.phy tbReceived:vector ETV
attr source tbReceived
attr title "Number of tb received, vector"
vector 294 Highway.car[6].lteNic.phy tbDecoded:vector ETV
attr source tbDecoded
attr title "Number of tb Decoded, vector"
vector 295 Highway.car[6].lteNic.phy tbFailedDueToNoSCI:vector ETV
attr source tbFailedDueToNoSCI
attr title "Number of tb not decoded due to no SCI, vector"
vector 296 Highway.car[6].lteNic.phy tbFailedDueToProp:vector ETV
attr source tbFailedDueToProp
attr title "Number of failed TBs due to propogation, vector"
vector 297 Highway.car[6].lteNic.phy tbFailedDueToInterference:vector ETV
attr source tbFailedDueToInterference
attr title "Number of failed TBs due to interference, vector"
vector 298 Highway.car[6].lteNic.phy tbFailedButSCIReceived:vector ETV
attr source tbFailedButSCIReceived
attr title "Number of failed TBs with a decoded SCI, vector"
vector 299 Highway.car[6].lteNic.phy tbFailedHalfDuplex:vector ETV
attr source tbFailedHalfDuplex
attr title "Number of failed TBs due to Half Duplex, vector"
vector 300 Highway.car[6].lteNic.phy periodic:vector ETV
attr source periodic
attr title "Identifies traffic as periodic or aperiodic, vector"
vector 301 Highway.car[6].lteNic.phy tbFailedDueToPropIgnoreSCI:vector ETV
attr source tbFailedDueToPropIgnoreSCI
attr title "Number of failed TBs due to propogation, vector"
vector 302 Highway.car[6].lteNic.phy tbFailedDueToInterferenceIgnoreSCI:vector ETV
attr source tbFailedDueToInterferenceIgnoreSCI
attr title "Number of failed TBs due to interference, vector"
vector 303 Highway.car[6].lteNic.phy tbDecodedIgnoreSCI:vector ETV
attr source tbDecodedIgnoreSCI
attr title "Number of failed TBs due to interference, vector"
vector 304 Highway.car[6].lteNic.mac receivedPacketFromLowerLayer:vector(packetBytes) ETV
attr interpolationmode none
attr source receivedPacketFromLowerLayer
vector 305 Highway.car[7].lteNic.phy txRxDistanceSCI:vector ETV
attr source txRxDistanceSCI
attr title "Distance between transmitter and receiver, vector"
vector 306 Highway.car[7].lteNic.phy senderID:vector ETV
attr source senderID
attr title "ID of node who sent message, vector"
vector 307 Highway.car[7].lteNic.phy sciReceived:vector ETV
attr source sciReceived
attr title "Number of received sci, vector"
vector 308 Highway.car[7].lteNic.phy sciUnsensed:vector ETV
attr source sciUnsensed
attr title "Number of failed SCIs due to RSRP below threshold, vector"
vector 309 Highway.car[7].lteNic.phy sciDecoded:vector ETV
attr source sciDecoded
attr title "Number of sci successfully decoded, vector"
vector 310 Highway.car[7].lteNic.phy sciFailedDueToProp:vector ETV
attr source sciFailedDueToProp
attr title "Number of failed SCIs due to propogation, vector"
vector 311 Highway.car[7].lteNic.phy sciFailedDueToInterference:vector ETV
attr source sciFailedDueToInterference
attr title "Number of failed SCIs due to interference, vector"
vector 312 Highway.car[7].lteNic.phy sciFailedHalfDuplex:vector ETV
attr source sciFailedHalfDuplex
attr title "Number of failed SCIs due to Half Duplex, vector"
vector 313 Highway.car[7].lteNic.phy subchannelReceived:vector ETV
attr source subchannelReceived
attr title "Initial Subchannel on which packet is received, vector"
vector 314 Highway.car[7].lteNic.phy subchannelsUsed:vector ETV
attr source subchannelsUsed
attr title "Number of Subchannels used for the received packet, vector"
vector 315 Highway.car[7].lteNic.phy txRxDistanceTB:vector ETV
attr source txRxDistanceTB
attr title "Distance between transmitter and receiver, vector"
vector 316 Highway.car[7].lteNic.phy tbReceived:vector ETV
attr source tbReceived
attr title "Number of tb received, vector"
vector 317 Highway.car[7].lteNic.phy tbDecoded:vector ETV
attr source tbDecoded
attr title "Number of tb Decoded, vector"
vector 318 Highway.car[7].lteNic.phy tbFailedDueToNoSCI:vector ETV
attr source tbFailedDueToNoSCI
attr title "Number of tb not decoded due to no SCI, vector"
vector 319 Highway.car[7].lteNic.phy tbFailedDueToProp:vector ETV
attr source tbFailedDueToProp
attr title "Number of failed TBs due to propogation, vector"
vector 320 Highway.car[7].lteNic.phy tbFailedDueToInterference:vector ETV
attr source tbFailedDueToInterference
attr title "Number of failed TBs due to interference, vector"
vector 321 Highway.car[7].lteNic.phy tbFailedButSCIReceived:vector ETV
attr source tbFailedButSCIReceived
attr title "Number of failed TBs with a decoded SCI, vector"
vector 322 Highway.car[7].lteNic.phy tbFailedHalfDuplex:vector ETV
attr source tbFailedHalfDuplex
attr title "Number of failed TBs due to Half Duplex, vector"
vector 323 Highway.car[7].lteNic.phy periodic:vector ETV
attr source periodic
attr title "Identifies traffic as periodic or aperiodic, vector"
vector 324 Highway.car[7].lteNic.phy tbFailedDueToPropIgnoreSCI:vector ETV
attr source tbFailedDueToPropIgnoreSCI
attr title "Number of failed TBs due to propogation, vector"
vector 325 Highway.car[7].lteNic.phy tbFailedDueToInterferenceIgnoreSCI:vector ETV
attr source tbFailedDueToInterferenceIgnoreSCI
attr title "Number of failed TBs due to interference, vector"
vector 326 Highway.car[7].lteNic.phy tbDecodedIgnoreSCI:vector ETV
attr source tbDecodedIgnoreSCI
attr title "Number of failed TBs due to interference, vector"
vector 327 Highway.car[7].lteNic.mac receivedPacketFromLowerLayer:vector(packetBytes) ETV
attr interpolationmode none
attr source receivedPacketFromLowerLayer
vector 328 Highway.car[8].lteNic.phy txRxDistanceSCI:vector ETV
attr source txRxDistanceSCI
attr title "Distance between transmitter and receiver, vector"
vector 329 Highway.car[8].lteNic.phy senderID:vector ETV
attr source senderID
attr title "ID of node who sent message, vector"
vector 330 Highway.car[8].lteNic.phy sciReceived:vector ETV
attr source sciReceived
attr title "Number of received sci, vector"
vector 331 Highway.car[8].lteNic.phy sciUnsensed:vector ETV
attr source sciUnsensed
attr title "Number of failed SCIs due to RSRP below threshold, vector"
vector 332 Highway.car[8].lteNic.phy sciDecoded:vector ETV
attr source sciDecoded
attr title "Number of sci successfully decoded, vector"
vector 333 Highway.car[8].lteNic.phy sciFailedDueToProp:vector ETV
attr source sciFailedDueToProp
attr title "Number of failed SCIs due to propogation, vector"
vector 334 Highway.car[8].lteNic.phy sciFailedDueToInterference:vector ETV
attr source sciFailedDueToInterference
attr title "Number of failed SCIs due to interference, vector"
vector 335 Highway.car[8].lteNic.phy sciFailedHalfDuplex:vector ETV
attr source sciFailedHalfDuplex
attr title "Number of failed SCIs due to Half Duplex, vector"
vector 336 Highway.car[8].lteNic.phy subchannelReceived:vector ETV
attr source subchannelReceived
attr title "Initial Subchannel on which packet is received, vector"
vector 337 Highway.car[8].lteNic.phy subchannelsUsed:vector ETV
attr source subchannelsUsed
attr title "Number of Subchannels used for the received packet, vector"
vector 338 Highway.car[8].lteNic.phy txRxDistanceTB:vector ETV
attr source txRxDistanceTB
attr title "Distance between transmitter and receiver, vector"
vector 339 Highway.car[8].lteNic.phy tbReceived:vector ETV
attr source tbReceived
attr title "Number of tb received, vector"
vector 340 Highway.car[8].lteNic.phy tbDecoded:vector ETV
attr source tbDecoded
attr title "Number of tb Decoded, vector"
vector 341 Highway.car[8].lteNic.phy tbFailedDueToNoSCI:vector ETV
attr source tbFailedDueToNoSCI
attr title "Number of tb not decoded due to no SCI, vector"
vector 342 Highway.car[8].lteNic.phy tbFailedDueToProp:vector ETV
attr source tbFailedDueToProp
attr title "Number of failed TBs due to propogation, vector"
vector 343 Highway.car[8].lteNic.phy tbFailedDueToInterference:vector ETV
attr source tbFailedDueToInterference
attr title "Number of failed TBs due to interference, vector"
vector 344 Highway.car[8].lteNic.phy tbFailedButSCIReceived:vector ETV
attr source tbFailedButSCIReceived
attr title "Number of failed TBs with a decoded SCI, vector"
vector 345 Highway.car[8].lteNic.phy tbFailedHalfDuplex:vector ETV
attr source tbFailedHalfDuplex
attr title "Number of failed TBs due to Half Duplex, vector"
vector 346 Highway.car[8].lteNic.phy periodic:vector ETV
attr source periodic
attr title "Identifies traffic as periodic or aperiodic, vector"
vector 347 Highway.car[8].lteNic.phy tbFailedDueToPropIgnoreSCI:vector ETV
attr source tbFailedDueToPropIgnoreSCI
attr title "Number of failed TBs due to propogation, vector"
vector 348 Highway.car[8].lteNic.phy tbFailedDueToInterferenceIgnoreSCI:vector ETV
attr source tbFailedDueToInterferenceIgnoreSCI
attr title "Number of failed TBs due to interference, vector"
vector 349 Highway.car[8].lteNic.phy tbDecodedIgnoreSCI:vector ETV
attr source tbDecodedIgnoreSCI
attr title "Number of failed TBs due to interference, vector"
vector 350 Highway.car[8].lteNic.mac receivedPacketFromLowerLayer:vector(packetBytes) ETV
attr interpolationmode none
attr source receivedPacketFromLowerLayer
vector 351 Highway.car[9].lteNic.phy txRxDistanceSCI:vector ETV
attr source txRxDistanceSCI
attr title "Distance between transmitter and receiver, vector"
vector 352 Highway.car[9].lteNic.phy senderID:vector ETV
attr source senderID
attr title "ID of node who sent message, vector"
vector 353 Highway.car[9].lteNic.phy sciReceived:vector ETV
attr source sciReceived
attr title "Number of received sci, vector"
vector 354 Highway.car[9].lteNic.phy sciUnsensed:vector ETV
attr source sciUnsensed
attr title "Number of failed SCIs due to RSRP below threshold, vector"
vector 355 Highway.car[9].lteNic.phy sciDecoded:vector ETV
attr source sciDecoded
attr title "Number of sci successfully decoded, vector"
vector 356 Highway.car[9].lteNic.phy sciFailedDueToProp:vector ETV
attr source sciFailedDueToProp
attr title "Number of failed SCIs due to propogation, vector"
vector 357 Highway.car[9].lteNic.phy sciFailedDueToInterference:vector ETV
attr source sciFailedDueToInterference
attr title "Number of failed SCIs due to interference, vector"
vector 358 Highway.car[9].lteNic.phy sciFailedHalfDuplex:vector ETV
attr source sciFailedHalfDuplex
attr title "Number of failed SCIs due to Half Duplex, vector"
vector 359 Highway.car[9].lteNic.phy subchannelReceived:vector ETV
attr source subchannelReceived
attr title "Initial Subchannel on which packet is received, vector"
vector 360 Highway.car[9].lteNic.phy subchannelsUsed:vector ETV
attr source subchannelsUsed
attr title "Number of Subchannels used for the received packet, vector"
vector 361 Highway.car[9].lteNic.phy txRxDistanceTB:vector ETV
attr source txRxDistanceTB
attr title "Distance between transmitter and receiver, vector"
vector 362 Highway.car[9].lteNic.phy tbReceived:vector ETV
attr source tbReceived
attr title "Number of tb received, vector"
vector 363 Highway.car[9].lteNic.phy tbDecoded:vector ETV
attr source tbDecoded
attr title "Number of tb Decoded, vector"
vector 364 Highway.car[9].lteNic.phy tbFailedDueToNoSCI:vector ETV
attr source tbFailedDueToNoSCI
attr title "Number of tb not decoded due to no SCI, vector"
vector 365 Highway.car[9].lteNic.phy tbFailedDueToProp:vector ETV
attr source tbFailedDueToProp
attr title "Number of failed TBs due to propogation, vector"
vector 366 Highway.car[9].lteNic.phy tbFailedDueToInterference:vector ETV
attr source tbFailedDueToInterference
attr title "Number of failed TBs due to interference, vector"
vector 367 Highway.car[9].lteNic.phy tbFailedButSCIReceived:vector ETV
attr source tbFailedButSCIReceived
attr title "Number of failed TBs with a decoded SCI, vector"
vector 368 Highway.car[9].lteNic.phy tbFailedHalfDuplex:vector ETV
attr source tbFailedHalfDuplex
attr title "Number of failed TBs due to Half Duplex, vector"
vector 369 Highway.car[9].lteNic.phy periodic:vector ETV
attr source periodic
attr title "Identifies traffic as periodic or aperiodic, vector"
vector 370 Highway.car[9].lteNic.phy tbFailedDueToPropIgnoreSCI:vector ETV
attr source tbFailedDueToPropIgnoreSCI
attr title "Number of failed TBs due to propogation, vector"
vector 371 Highway.car[9].lteNic.phy tbFailedDueToInterferenceIgnoreSCI:vector ETV
attr source tbFailedDueToInterferenceIgnoreSCI
attr title "Number of failed TBs due to interference, vector"
vector 372 Highway.car[9].lteNic.phy tbDecodedIgnoreSCI:vector ETV
attr source tbDecodedIgnoreSCI
attr title "Number of failed TBs due to interference, vector"
vector 373 Highway.car[9].lteNic.mac receivedPacketFromLowerLayer:vector(packetBytes) ETV
attr interpolationmode none
attr source receivedPacketFromLowerLayer
vector 374 Highway.car[10].lteNic.phy txRxDistanceSCI:vector ETV
attr source txRxDistanceSCI
attr title "Distance between transmitter and receiver, vector"
vector 375 Highway.car[10].lteNic.phy senderID:vector ETV
attr source senderID
attr title "ID of node who sent message, vector"
vector 376 Highway.car[10].lteNic.phy sciReceived:vector ETV
attr source sciReceived
attr title "Number of received sci, vector"
vector 377 Highway.car[10].lteNic.phy sciUnsensed:vector ETV
attr source sciUnsensed
attr title "Number of failed SCIs due to RSRP below threshold, vector"
vector 378 Highway.car[10].lteNic.phy sciDecoded:vector ETV
attr source sciDecoded
attr title "Number of sci successfully decoded, vector"
vector 379 Highway.car[10].lteNic.phy sciFailedDueToProp:vector ETV
attr source sciFailedDueToProp
attr title "Number of failed SCIs due to propogation, vector"
vector 380 Highway.car[10].lteNic.phy sciFailedDueToInterference:vector ETV
attr source sciFailedDueToInterference
attr title "Number of failed SCIs due to interference, vector"
vector 381 Highway.car[10].lteNic.phy sciFailedHalfDuplex:vector ETV
attr source sciFailedHalfDuplex
attr title "Number of failed SCIs due to Half Duplex, vector"
vector 382 Highway.car[10].lteNic.phy subchannelReceived:vector ETV
attr source subchannelReceived
attr title "Initial Subchannel on which packet is received, vector"
vector 383 Highway.car[10].lteNic.phy subchannelsUsed:vector ETV
attr source subchannelsUsed
attr title "Number of Subchannels used for the received packet, vector"
vector 384 Highway.car[10].lteNic.phy txRxDistanceTB:vector ETV
attr source txRxDistanceTB
attr title "Distance between transmitter and receiver, vector"
vector 385 Highway.car[10].lteNic.phy tbReceived:vector ETV
attr source tbReceived
attr title "Number of tb received, vector"
vector 386 Highway.car[10].lteNic.phy tbDecoded:vector ETV
attr source tbDecoded
attr title "Number of tb Decoded, vector"
vector 387 Highway.car[10].lteNic.phy tbFailedDueToNoSCI:vector ETV
attr source tbFailedDueToNoSCI
attr title "Number of tb not decoded due to no SCI, vector"
vector 388 Highway.car[10].lteNic.phy tbFailedDueToProp:vector ETV
attr source tbFailedDueToProp
attr title "Number of failed TBs due to propogation, vector"
vector 389 Highway.car[10].lteNic.phy tbFailedDueToInterference:vector ETV
attr source tbFailedDueToInterference
attr title "Number of failed TBs due to interference, vector"
vector 390 Highway.car[10].lteNic.phy tbFailedButSCIReceived:vector ETV
attr source tbFailedButSCIReceived
attr title "Number of failed TBs with a decoded SCI, vector"
vector 391 Highway.car[10].lteNic.phy tbFailedHalfDuplex:vector ETV
attr source tbFailedHalfDuplex
attr title "Number of failed TBs due to Half Duplex, vector"
vector 392 Highway.car[10].lteNic.phy periodic:vector ETV
attr source periodic
attr title "Identifies traffic as periodic or aperiodic, vector"
vector 393 Highway.car[10].lteNic.phy tbFailedDueToPropIgnoreSCI:vector ETV
attr source tbFailedDueToPropIgnoreSCI
attr title "Number of failed TBs due to propogation, vector"
vector 394 Highway.car[10].lteNic.phy tbFailedDueToInterferenceIgnoreSCI:vector ETV
attr source tbFailedDueToInterferenceIgnoreSCI
attr title "Number of failed TBs due to interference, vector"
vector 395 Highway.car[10].lteNic.phy tbDecodedIgnoreSCI:vector ETV
attr source tbDecodedIgnoreSCI
attr title "Number of failed TBs due to interference, vector"
vector 396 Highway.car[10].lteNic.mac receivedPacketFromLowerLayer:vector(packetBytes) ETV
attr interpolationmode none
attr source receivedPacketFromLowerLayer
vector 397 Highway.car[11].lteNic.phy txRxDistanceSCI:vector ETV
attr source txRxDistanceSCI
attr title "Distance between transmitter and receiver, vector"
vector 398 Highway.car[11].lteNic.phy senderID:vector ETV
attr source senderID
attr title "ID of node who sent message, vector"
vector 399 Highway.car[11].lteNic.phy sciReceived:vector ETV
attr source sciReceived
attr title "Number of received sci, vector"
vector 400 Highway.car[11].lteNic.phy sciUnsensed:vector ETV
attr source sciUnsensed
attr title "Number of failed SCIs due to RSRP below threshold, vector"
vector 401 Highway.car[11].lteNic.phy sciDecoded:vector ETV
attr source sciDecoded
attr title "Number of sci successfully decoded, vector"
vector 402 Highway.car[11].lteNic.phy sciFailedDueToProp:vector ETV
attr source sciFailedDueToProp
attr title "Number of failed SCIs due to propogation, vector"
vector 403 Highway.car[11].lteNic.phy sciFailedDueToInterference:vector ETV
attr source sciFailedDueToInterference
attr title "Number of failed SCIs due to interference, vector"
vector 404 Highway.car[11].lteNic.phy sciFailedHalfDuplex:vector ETV
attr source sciFailedHalfDuplex
attr title "Number of failed SCIs due to Half Duplex, vector"
vector 405 Highway.car[11].lteNic.phy subchannelReceived:vector ETV
attr source subchannelReceived
attr title "Initial Subchannel on which packet is received, vector"
vector 406 Highway.car[11].lteNic.phy subchannelsUsed:vector ETV
attr source subchannelsUsed
attr title "Number of Subchannels used for the received packet, vector"
vector 407 Highway.car[11].lteNic.phy txRxDistanceTB:vector ETV
attr source txRxDistanceTB
attr title "Distance between transmitter and receiver, vector"
vector 408 Highway.car[11].lteNic.phy tbReceived:vector ETV
attr source tbReceived
attr title "Number of tb received, vector"
vector 409 Highway.car[11].lteNic.phy tbDecoded:vector ETV
attr source tbDecoded
attr title "Number of tb Decoded, vector"
vector 410 Highway.car[11].lteNic.phy tbFailedDueToNoSCI:vector ETV
attr source tbFailedDueToNoSCI
attr title "Number of tb not decoded due to no SCI, vector"
vector 411 Highway.car[11].lteNic.phy tbFailedDueToProp:vector ETV
attr source tbFailedDueToProp
attr title "Number of failed TBs due to propogation, vector"
vector 412 Highway.car[11].lteNic.phy tbFailedDueToInterference:vector ETV
attr source tbFailedDueToInterference
attr title "Number of failed TBs due to interference, vector"
vector 413 Highway.car[11].lteNic.phy tbFailedButSCIReceived:vector ETV
attr source tbFailedButSCIReceived
attr title "Number of failed TBs with a decoded SCI, vector"
vector 414 Highway.car[11].lteNic.phy tbFailedHalfDuplex:vector ETV
attr source tbFailedHalfDuplex
attr title "Number of failed TBs due to Half Duplex, vector"
vector 415 Highway.car[11].lteNic.phy periodic:vector ETV
attr source periodic
attr title "Identifies traffic as periodic or aperiodic, vector"
vector 416 Highway.car[11].lteNic.phy tbFailedDueToPropIgnoreSCI:vector ETV
attr source tbFailedDueToPropIgnoreSCI
attr title "Number of failed TBs due to propogation, vector"
vector 417 Highway.car[11].lteNic.phy tbFailedDueToInterferenceIgnoreSCI:vector ETV
attr source tbFailedDueToInterferenceIgnoreSCI
attr title "Number of failed TBs due to interference, vector"
vector 418 Highway.car[11].lteNic.phy tbDecodedIgnoreSCI:vector ETV
attr source tbDecodedIgnoreSCI
attr title "Number of failed TBs due to interference, vector"
vector 419 Highway.car[11].lteNic.mac receivedPacketFromLowerLayer:vector(packetBytes) ETV
attr interpolationmode none
attr source receivedPacketFromLowerLayer
vector 420 Highway.car[12].lteNic.phy txRxDistanceSCI:vector ETV
attr source txRxDistanceSCI
attr title "Distance between transmitter and receiver, vector"
vector 421 Highway.car[12].lteNic.phy senderID:vector ETV
attr source senderID
attr title "ID of node who sent message, vector"
vector 422 Highway.car[12].lteNic.phy sciReceived:vector ETV
attr source sciReceived
attr title "Number of received sci, vector"
vector 423 Highway.car[12].lteNic.phy sciUnsensed:vector ETV
attr source sciUnsensed
attr title "Number of failed SCIs due to RSRP below threshold, vector"
vector 424 Highway.car[12].lteNic.phy sciDecoded:vector ETV
attr source sciDecoded
attr title "Number of sci successfully decoded, vector"
vector 425 Highway.car[12].lteNic.phy sciFailedDueToProp:vector ETV
attr source sciFailedDueToProp
attr title "Number of failed SCIs due to propogation, vector"
vector 426 Highway.car[12].lteNic.phy sciFailedDueToInterference:vector ETV
attr source sciFailedDueToInterference
attr title "Number of failed SCIs due to interference, vector"
vector 427 Highway.car[12].lteNic.phy sciFailedHalfDuplex:vector ETV
attr source sciFailedHalfDuplex
attr title "Number of failed SCIs due to Half Duplex, vector"
vector 428 Highway.car[12].lteNic.phy subchannelReceived:vector ETV
attr source subchannelReceived
attr title "Initial Subchannel on which packet is received, vector"
vector 429 Highway.car[12].lteNic.phy subchannelsUsed:vector ETV
attr source subchannelsUsed
attr title "Number of Subchannels used for the received packet, vector"
vector 430 Highway.car[12].lteNic.phy txRxDistanceTB:vector ETV
attr source txRxDistanceTB
attr title "Distance between transmitter and receiver, vector"
vector 431 Highway.car[12].lteNic.phy tbReceived:vector ETV
attr source tbReceived
attr title "Number of tb received, vector"
vector 432 Highway.car[12].lteNic.phy tbDecoded:vector ETV
attr source tbDecoded
attr title "Number of tb Decoded, vector"
vector 433 Highway.car[12].lteNic.phy tbFailedDueToNoSCI:vector ETV
attr source tbFailedDueToNoSCI
attr title "Number of tb not decoded due to no SCI, vector"
vector 434 Highway.car[12].lteNic.phy tbFailedDueToProp:vector ETV
attr source tbFailedDueToProp
attr title "Number of failed TBs due to propogation, vector"
vector 435 Highway.car[12].lteNic.phy tbFailedDueToInterference:vector ETV
attr source tbFailedDueToInterference
attr title "Number of failed TBs due to interference, vector"
vector 436 Highway.car[12].lteNic.phy tbFailedButSCIReceived:vector ETV
attr source tbFailedButSCIReceived
attr title "Number of failed TBs with a decoded SCI, vector"
vector 437 Highway.car[12].lteNic.phy tbFailedHalfDuplex:vector ETV
attr source tbFailedHalfDuplex
attr title "Number of failed TBs due to Half Duplex, vector"
vector 438 Highway.car[12].lteNic.phy periodic:vector ETV
attr source periodic
attr title "Identifies traffic as periodic or aperiodic, vector"
vector 439 Highway.car[12].lteNic.phy tbFailedDueToPropIgnoreSCI:vector ETV
attr source tbFailedDueToPropIgnoreSCI
attr title "Number of failed TBs due to propogation, vector"
vector 440 Highway.car[12].lteNic.phy tbFailedDueToInterferenceIgnoreSCI:vector ETV
attr source tbFailedDueToInterferenceIgnoreSCI
attr title "Number of failed TBs due to interference, vector"
vector 441 Highway.car[12].lteNic.phy tbDecodedIgnoreSCI:vector ETV
attr source tbDecodedIgnoreSCI
attr title "Number of failed TBs due to interference, vector"
vector 442 Highway.car[12].lteNic.mac receivedPacketFromLowerLayer:vector(packetBytes) ETV
attr interpolationmode none
attr source receivedPacketFromLowerLayer
vector 443 Highway.car[13].lteNic.phy txRxDistanceSCI:vector ETV
attr source txRxDistanceSCI
attr title "Distance between transmitter and receiver, vector"
vector 444 Highway.car[13].lteNic.phy senderID:vector ETV
attr source senderID
attr title "ID of node who sent message, vector"
vector 445 Highway.car[13].lteNic.phy sciReceived:vector ETV
attr source sciReceived
attr title "Number of received sci, vector"
vector 446 Highway.car[13].lteNic.phy sciUnsensed:vector ETV
attr source sciUnsensed
attr title "Number of failed SCIs due to RSRP below threshold, vector"
vector 447 Highway.car[13].lteNic.phy sciDecoded:vector ETV
attr source sciDecoded
attr title "Number of sci successfully decoded, vector"
vector 448 Highway.car[13].lteNic.phy sciFailedDueToProp:vector ETV
attr source sciFailedDueToProp
attr title "Number of failed SCIs due to propogation, vector"
vector 449 Highway.car[13].lteNic.phy sciFailedDueToInterference:vector ETV
attr source sciFailedDueToInterference
attr title "Number of failed SCIs due to interference, vector"
vector 450 Highway.car[13].lteNic.phy sciFailedHalfDuplex:vector ETV
attr source sciFailedHalfDuplex
attr title "Number of failed SCIs due to Half Duplex, vector"
vector 451 Highway.car[13].lteNic.phy subchannelReceived:vector ETV
attr source subchannelReceived
attr title "Initial Subchannel on which packet is received, vector"
vector 452 Highway.car[13].lteNic.phy subchannelsUsed:vector ETV
attr source subchannelsUsed
attr title "Number of Subchannels used for the received packet, vector"
vector 453 Highway.car[13].lteNic.phy txRxDistanceTB:vector ETV
attr source txRxDistanceTB
attr title "Distance between transmitter and receiver, vector"
vector 454 Highway.car[13].lteNic.phy tbReceived:vector ETV
attr source tbReceived
attr title "Number of tb received, vector"
vector 455 Highway.car[13].lteNic.phy tbDecoded:vector ETV
attr source tbDecoded
attr title "Number of tb Decoded, vector"
vector 456 Highway.car[13].lteNic.phy tbFailedDueToNoSCI:vector ETV
attr source tbFailedDueToNoSCI
attr title "Number of tb not decoded due to no SCI, vector"
vector 457 Highway.car[13].lteNic.phy tbFailedDueToProp:vector ETV
attr source tbFailedDueToProp
attr title "Number of failed TBs due to propogation, vector"
vector 458 Highway.car[13].lteNic.phy tbFailedDueToInterference:vector ETV
attr source tbFailedDueToInterference
attr title "Number of failed TBs due to interference, vector"
vector 459 Highway.car[13].lteNic.phy tbFailedButSCIReceived:vector ETV
attr source tbFailedButSCIReceived
attr title "Number of failed TBs with a decoded SCI, vector"
vector 460 Highway.car[13].lteNic.phy tbFailedHalfDuplex:vector ETV
attr source tbFailedHalfDuplex
attr title "Number of failed TBs due to Half Duplex, vector"
vector 461 Highway.car[13].lteNic.phy periodic:vector ETV
attr source periodic
attr title "Identifies traffic as periodic or aperiodic, vector"
vector 462 Highway.car[13].lteNic.phy tbFailedDueToPropIgnoreSCI:vector ETV
attr source tbFailedDueToPropIgnoreSCI
attr title "Number of failed TBs due to propogation, vector"
vector 463 Highway.car[13].lteNic.phy tbFailedDueToInterferenceIgnoreSCI:vector ETV
attr source tbFailedDueToInterferenceIgnoreSCI
attr title "Number of failed TBs due to interference, vector"
vector 464 Highway.car[13].lteNic.phy tbDecodedIgnoreSCI:vector ETV
attr source tbDecodedIgnoreSCI
attr title "Number of failed TBs due to interference, vector"
vector 465 Highway.car[14].lteNic.phy txRxDistanceSCI:vector ETV
attr source txRxDistanceSCI
attr title "Distance between transmitter and receiver, vector"
vector 466 Highway.car[14].lteNic.phy senderID:vector ETV
attr source senderID
attr title "ID of node who sent message, vector"
vector 467 Highway.car[14].lteNic.phy sciReceived:vector ETV
attr source sciReceived
attr title "Number of received sci, vector"
vector 468 Highway.car[14].lteNic.phy sciUnsensed:vector ETV
attr source sciUnsensed
attr title "Number of failed SCIs due to RSRP below threshold, vector"
vector 469 Highway.car[14].lteNic.phy sciDecoded:vector ETV
attr source sciDecoded
attr title "Number of sci successfully decoded, vector"
vector 470 Highway.car[14].lteNic.phy sciFailedDueToProp:vector ETV
attr source sciFailedDueToProp
attr title "Number of failed SCIs due to propogation, vector"
vector 471 Highway.car[14].lteNic.phy sciFailedDueToInterference:vector ETV
attr source sciFailedDueToInterference
attr title "Number of failed SCIs due to interference, vector"
vector 472 Highway.car[14].lteNic.phy sciFailedHalfDuplex:vector ETV
attr source sciFailedHalfDuplex
attr title "Number of failed SCIs due to Half Duplex, vector"
vector 473 Highway.car[14].lteNic.phy subchannelReceived:vector ETV
attr source subchannelReceived
attr title "Initial Subchannel on which packet is received, vector"
vector 474 Highway.car[14].lteNic.phy subchannelsUsed:vector ETV
attr source subchannelsUsed
attr title "Number of Subchannels used for the received packet, vector"
vector 475 Highway.car[14].lteNic.phy txRxDistanceTB:vector ETV
attr source txRxDistanceTB
attr title "Distance between transmitter and receiver, vector"
vector 476 Highway.car[14].lteNic.phy tbReceived:vector ETV
attr source tbReceived
attr title "Number of tb received, vector"
vector 477 Highway.car[14].lteNic.phy tbDecoded:vector ETV
attr source tbDecoded
attr title "Number of tb Decoded, vector"
vector 478 Highway.car[14].lteNic.phy tbFailedDueToNoSCI:vector ETV
attr source tbFailedDueToNoSCI
attr title "Number of tb not decoded due to no SCI, vector"
vector 479 Highway.car[14].lteNic.phy tbFailedDueToProp:vector ETV
attr source tbFailedDueToProp
attr title "Number of failed TBs due to propogation, vector"
vector 480 Highway.car[14].lteNic.phy tbFailedDueToInterference:vector ETV
attr source tbFailedDueToInterference
attr title "Number of failed TBs due to interference, vector"
vector 481 Highway.car[14].lteNic.phy tbFailedButSCIReceived:vector ETV
attr source tbFailedButSCIReceived
attr title "Number of failed TBs with a decoded SCI, vector"
vector 482 Highway.car[14].lteNic.phy tbFailedHalfDuplex:vector ETV
attr source tbFailedHalfDuplex
attr title "Number of failed TBs due to Half Duplex, vector"
vector 483 Highway.car[14].lteNic.phy periodic:vector ETV
attr source periodic
attr title "Identifies traffic as periodic or aperiodic, vector"
vector 484 Highway.car[14].lteNic.phy tbFailedDueToPropIgnoreSCI:vector ETV
attr source tbFailedDueToPropIgnoreSCI
attr title "Number of failed TBs due to propogation, vector"
vector 485 Highway.car[14].lteNic.phy tbFailedDueToInterferenceIgnoreSCI:vector ETV
attr source tbFailedDueToInterferenceIgnoreSCI
attr title "Number of failed TBs due to interference, vector"
vector 486 Highway.car[14].lteNic.phy tbDecodedIgnoreSCI:vector ETV
attr source tbDecodedIgnoreSCI
attr title "Number of failed TBs due to interference, vector"
vector 487 Highway.car[14].lteNic.mac receivedPacketFromLowerLayer:vector(packetBytes) ETV
attr interpolationmode none
attr source receivedPacketFromLowerLayer
vector 488 Highway.car[15].lteNic.phy txRxDistanceSCI:vector ETV
attr source txRxDistanceSCI
attr title "Distance between transmitter and receiver, vector"
vector 489 Highway.car[15].lteNic.phy senderID:vector ETV
attr source senderID
attr title "ID of node who sent message, vector"
vector 490 Highway.car[15].lteNic.phy sciReceived:vector ETV
attr source sciReceived
attr title "Number of received sci, vector"
vector 491 Highway.car[15].lteNic.phy sciUnsensed:vector ETV
attr source sciUnsensed
attr title "Number of failed SCIs due to RSRP below threshold, vector"
vector 492 Highway.car[15].lteNic.phy sciDecoded:vector ETV
attr source sciDecoded
attr title "Number of sci successfully decoded, vector"
vector 493 Highway.car[15].lteNic.phy sciFailedDueToProp:vector ETV
attr source sciFailedDueToProp
attr title "Number of failed SCIs due to propogation, vector"
vector 494 Highway.car[15].lteNic.phy sciFailedDueToInterference:vector ETV
attr source sciFailedDueToInterference
attr title "Number of failed SCIs due to interference, vector"
vector 495 Highway.car[15].lteNic.phy sciFailedHalfDuplex:vector ETV
attr source sciFailedHalfDuplex
attr title "Number of failed SCIs due to Half Duplex, vector"
vector 496 Highway.car[15].lteNic.phy subchannelReceived:vector ETV
attr source subchannelReceived
attr title "Initial Subchannel on which packet is received, vector"
vector 497 Highway.car[15].lteNic.phy subchannelsUsed:vector ETV
attr source subchannelsUsed
attr title "Number of Subchannels used for the received packet, vector"
vector 498 Highway.car[15].lteNic.phy txRxDistanceTB:vector ETV
attr source txRxDistanceTB
attr title "Distance between transmitter and receiver, vector"
vector 499 Highway.car[15].lteNic.phy tbReceived:vector ETV
attr source tbReceived
attr title "Number of tb received, vector"
vector 500 Highway.car[15].lteNic.phy tbDecoded:vector ETV
attr source tbDecoded
attr title "Number of tb Decoded, vector"
vector 501 Highway.car[15].lteNic.phy tbFailedDueToNoSCI:vector ETV
attr source tbFailedDueToNoSCI
attr title "Number of tb not decoded due to no SCI, vector"
vector 502 Highway.car[15].lteNic.phy tbFailedDueToProp:vector ETV
attr source tbFailedDueToProp
attr title "Number of failed TBs due to propogation, vector"
vector 503 Highway.car[15].lteNic.phy tbFailedDueToInterference:vector ETV
attr source tbFailedDueToInterference
attr title "Number of failed TBs due to interference, vector"
vector 504 Highway.car[15].lteNic.phy tbFailedButSCIReceived:vector ETV
attr source tbFailedButSCIReceived
attr title "Number of failed TBs with a decoded SCI, vector"
vector 505 Highway.car[15].lteNic.phy tbFailedHalfDuplex:vector ETV
attr source tbFailedHalfDuplex
attr title "Number of failed TBs due to Half Duplex, vector"
vector 506 Highway.car[15].lteNic.phy periodic:vector ETV
attr source periodic
attr title "Identifies traffic as periodic or aperiodic, vector"
[...]
898	1067353 219 16972 25495 500.241 500.341 11 3 3 33 99
899	1067572 219 16975 25498 500.241 500.341 11 1 1 11 11
900	1067791 219 16975 25498 500.241 500.341 11 0 0 0 0
901	1068010 262 16976 25499 500.241 500.341 11 0.01 0.091 0.462 0.026514
902	1068272 219 16976 25499 500.241 500.341 11 1 1 11 11
903	1068491 263 16977 25500 500.241 500.341 11 0.002 0.002 0.022 4.4e-05
904	1068754 239 16977 25500 500.241 500.341 12 0 3 33 99
905	1068993 219 16980 25503 500.241 500.341 11 1 1 11 11
906	1069212 239 16980 25503 500.241 500.341 12 0 0 0 0
907	1069451 262 16981 25504 500.241 500.341 11 0.01 0.091 0.462 0.026514
908	1069713 219 16981 25504 500.241 500.341 11 1 1 11 11
909	1069932 263 16982 25505 500.241 500.341 11 0.002 0.002 0.022 4.4e-05
910	1070195 239 16982 25505 500.241 500.341 12 0 3 33 99
911	1070434 219 16985 25508 500.241 500.341 11 1 1 11 11
912	1070653 239 16985 25508 500.241 500.341 12 0 0 0 0
913	1070892 262 16986 25509 500.241 500.341 11 0.01 0.091 0.462 0.026514
914	1071154 219 16986 25509 500.241 500.341 11 1 1 11 11
915	1071373 263 16987 25510 500.241 500.341 11 0.002 0.002 0.022 4.4e-05
916	1071636 259 16901 25510 500.241 500.341 13 0 3 33 99
917	1071895 219 16990 25513 500.241 500.341 11 1 1 11 11
918	1072114 259 16904 25513 500.241 500.341 13 0 0 0 0
919	1072373 262 16991 25514 500.241 500.341 11 0.01 0.091 0.462 0.026514
920	1072635 219 16991 25514 500.241 500.341 11 1 1 11 11
921	1072854 263 16992 25515 500.241 500.341 11 0.002 0.002 0.022 4.4e-05
922	1073117 219 16992 25515 500.241 500.341 11 3 3 33 99
923	1073336 219 16995 25518 500.241 500.341 11 1 1 11 11
924	1073555 219 16995 25518 500.241 500.341 11 0 0 0 0
925	1073774 262 16996 25519 500.241 500.341 11 0.01 0.091 0.462 0.026514
926	1074036 219 16996 25519 500.241 500.341 11 1 1 11 11
927	1074255 239 16997 25520 500.241 500.341 10 0.002 0.002 0.02 4e-05
928	1074494 238 16997 25520 500.241 500.341 12 0 3 30 90
929	1074732 199 17000 25523 500.241 500.341 10 1 1 10 10
930	1074931 219 17000 25523 500.241 500.341 11 0 0 0 0
931	1075150 238 17001 25524 500.241 500.341 10 0.01 0.091 0.438 0.025938
932	1075388 199 17001 25524 500.241 500.341 10 1 1 10 10
933	1075587 239 17002 25525 500.241 500.341 10 0.002 0.002 0.02 4e-05
934	1075826 218 17002 25525 500.241 500.341 11 0 3 30 90
935	1076044 199 17005 25528 500.241 500.341 10 1 1 10 10
936	1076243 199 17005 25528 500.241 500.341 10 0 0 0 0
937	1076442 238 17006 25529 500.241 500.341 10 0.01 0.077 0.371 0.018233
938	1076680 199 17006 25529 500.241 500.341 10 1 1 10 10
939	1076879 263 17007 25530 500.241 500.341 11 0.002 0.002 0.022 4.4e-05
940	1077142 219 17007 25530 500.241 500.341 11 3 3 33 99
941	1077361 219 17010 25533 500.241 500.341 11 1 1 11 11
942	1077580 219 17010 25533 500.241 500.341 11 0 0 0 0
943	1077799 262 17011 25534 500.241 500.341 11 0.01 0.091 0.462 0.026514
944	1078061 219 17011 25534 500.241 500.341 11 1 1 11 11
945	1078280 239 17012 25535 500.241 500.341 10 0.002 0.002 0.02 4e-05
946	1078519 239 17012 25535 500.241 500.341 12 0 3 30 90
947	1078758 199 17015 25538 500.241 500.341 10 1 1 10 10
948	1078957 219 17015 25538 500.241 500.341 11 0 0 0 0
949	1079176 238 17016 25539 500.241 500.341 10 0.01 0.091 0.385 0.020585
950	1079414 199 17016 25539 500.241 500.341 10 1 1 10 10
951	1079613 263 17017 25540 500.241 500.341 11 0.002 0.002 0.022 4.4e-05
952	1079876 219 17017 25540 500.241 500.341 11 3 3 33 99
953	1080095 219 17020 25543 500.241 500.341 11 1 1 11 11
954	1080314 219 17020 25543 500.241 500.341 11 0 0 0 0
955	1080533 262 17021 25544 500.241 500.341 11 0.01 0.091 0.462 0.026514
956	1080795 219 17021 25544 500.241 500.341 11 1 1 11 11
957	1081014 263 17022 25545 500.241 500.341 11 0.002 0.002 0.022 4.4e-05
958	1081277 219 17022 25545 500.241 500.341 11 3 3 33 99
959	1081496 219 17025 25548 500.241 500.341 11 1 1 11 11
960	1081715 219 17025 25548 500.241 500.341 11 0 0 0 0
961	1081934 262 17026 25549 500.241 500.341 11 0.01 0.091 0.462 0.026514
962	1082196 219 17026 25549 500.241 500.341 11 1 1 11 11
963	1082415 239 17027 25550 500.241 500.341 10 0.002 0.002 0.02 4e-05
964	1082654 199 17030 25553 500.241 500.341 10 1 1 10 10
965	1082853 238 17031 25554 500.241 500.341 10 0.01 0.091 0.445 0.026225
966	1083091 199 17031 25554 500.241 500.341 10 1 1 10 10
967	1083290 239 17037 25560 500.241 500.341 10 0.002 0.002 0.02 4e-05
968	1083529 219 17037 25560 500.241 500.341 11 0 3 30 90
969	1083748 199 17040 25563 500.241 500.341 10 1 1 10 10
970	1083947 199 17040 25563 500.241 500.341 10 0 0 0 0
971	1084146 238 17041 25564 500.241 500.341 10 0.01 0.091 0.428 0.025358
972	1084384 199 17041 25564 500.241 500.341 10 1 1 10 10
973	1084583 263 17042 25565 500.241 500.341 11 0.002 0.002 0.022 4.4e-05
974	1084846 219 17042 25565 500.241 500.341 11 3 3 33 99
975	1085065 219 17045 25568 500.241 500.341 11 1 1 11 11
976	1085284 219 17045 25568 500.241 500.341 11 0 0 0 0
977	1085503 262 17046 25569 500.241 500.341 11 0.01 0.091 0.462 0.026514
978	1085765 219 17046 25569 500.241 500.341 11 1 1 11 11
979	1085984 263 17047 25570 500.241 500.341 11 0.002 0.002 0.022 4.4e-05
980	1086247 239 17047 25570 500.241 500.341 12 0 3 33 99
981	1086486 219 17050 25573 500.241 500.341 11 1 1 11 11
982	1086705 239 17050 25573 500.241 500.341 12 0 0 0 0
983	1086944 262 17051 25574 500.241 500.341 11 0.01 0.091 0.462 0.026514
984	1087206 219 17051 25574 500.241 500.341 11 1 1 11 11
985	1087425 36 23994 23994 500.324 500.324 1 0.027210884353741 0.027210884353741 0.027210884353741 0.00074043222731269
986	1087461 36 23994 23994 500.324 500.324 1 0.027210884353741 0.027210884353741 0.027210884353741 0.00074043222731269
987	1087497 36 24009 24009 500.324 500.324 1 0.027210884353741 0.027210884353741 0.027210884353741 0.00074043222731269
988	1087533 36 19883 19883 500.276 500.276 1 0.023569023569024 0.023569023569024 0.023569023569024 0.00055549887199719
989	1087569 36 19883 19883 500.276 500.276 1 0.023569023569024 0.023569023569024 0.023569023569024 0.00055549887199719
990	1087605 36 19888 19888 500.276 500.276 1 0.023569023569024 0.023569023569024 0.023569023569024 0.00055549887199719
991	1087641 20 20219 20219 500.282 500.282 1 1 1 1 1
992	1087661 20 20250 20250 500.282 500.282 1 0 0 0 0
993	1087681 20 20250 20250 500.282 500.282 1 1 1 1 1
995	1087701 40 22717 22717 500.314 500.314 2 0 5 5 25
997	1087741 40 20253 22714 500.282 500.314 2 1 3 4 10
1002	1087781 21 20656 20656 500.289 500.289 1 1 1 1 1
1003	1087802 21 20687 20687 500.289 500.289 1 0 0 0 0
1004	1087823 21 20687 20687 500.289 500.289 1 1 1 1 1
1006	1087844 42 18706 18706 500.264 500.264 2 0 5 5 25
1008	1087886 42 18698 20690 500.264 500.289 2 1 3 4 10
1013	1087928 36 22165 22165 500.306 500.306 1 0.03030303030303 0.03030303030303 0.03030303030303 0.00091827364554637
1014	1087964 36 22165 22165 500.306 500.306 1 0.03030303030303 0.03030303030303 0.03030303030303 0.00091827364554637
1015	1088000 36 22192 22192 500.306 500.306 1 0.03030303030303 0.03030303030303 0.03030303030303 0.00091827364554637
1016	1088036 20 22408 22408 500.31 500.31 1 1 1 1 1
1017	1088056 20 22439 22439 500.31 500.31 1 0 0 0 0
1018	1088076 20 22439 22439 500.31 500.31 1 1 1 1 1
1020	1088096 84 16692 25215 500.239 500.339 4 0 5 10 50
1022	1088180 62 16673 25124 500.239 500.339 3 1 3 7 19
1027	1088242 21 22717 22717 500.314 500.314 1 5 5 5 25
1028	1088263 21 22718 22718 500.314 500.314 1 1 1 1 1
1029	1088284 21 22718 22718 500.314 500.314 1 1 1 1 1
1030	1088305 21 22718 22718 500.314 500.314 1 1 1 1 1
1031	1088326 21 22719 22719 500.314 500.314 1 1 1 1 1
1032	1088347 348 16863 25386 500.24 500.34 10 254.07002927902 1336.6324405076 9262.707236793 9952550.8385038
1033	1088695 238 16863 25386 500.24 500.34 10 1028 1052 10407 10831143
1034	1088933 208 16863 25386 500.24 500.34 10 1 1 10 10
1035	1089141 208 16863 25386 500.24 500.34 10 0 1 6 6
1036	1089349 208 16863 25386 500.24 500.34 10 0 1 4 4
1037	1089557 208 16863 25386 500.24 500.34 10 0 0 0 0
1038	1089765 208 16863 25386 500.24 500.34 10 0 0 0 0
1039	1089973 208 16863 25386 500.24 500.34 10 0 0 0 0
1040	1090181 208 16863 25386 500.24 500.34 10 0 2 10 14
1041	1090389 208 16863 25386 500.24 500.34 10 1 1 10 10
1042	1090597 348 16863 25386 500.24 500.34 10 254.07002927902 1336.6324405076 9262.707236793 9952550.8385038
1043	1090945 208 16863 25386 500.24 500.34 10 1 1 10 10
1044	1091153 208 16863 25386 500.24 500.34 10 0 1 4 4
1045	1091361 208 16863 25386 500.24 500.34 10 0 1 6 6
1046	1091569 208 16863 25386 500.24 500.34 10 0 0 0 0
1047	1091777 208 16863 25386 500.24 500.34 10 0 0 0 0
1048	1091985 208 16863 25386 500.24 500.34 10 0 0 0 0
1049	1092193 208 16863 25386 500.24 500.34 10 0 0 0 0
1050	1092401 208 16863 25386 500.24 500.34 10 0 1 9 9
1051	1092609 208 16863 25386 500.24 500.34 10 0 0 0 0
1052	1092817 208 16863 25386 500.24 500.34 10 0 0 0 0
1053	1093025 208 16863 25386 500.24 500.34 10 1 1 10 10
1054	1093233 249 17032 25555 500.241 500.341 10 0.002 0.002 0.02 4e-05
1055	1093482 209 17035 25558 500.241 500.341 10 1 1 10 10
1056	1093691 209 17035 25558 500.241 500.341 10 0 0 0 0
1057	1093900 249 17036 25559 500.241 500.341 10 0.017 0.091 0.452 0.026414
1058	1094149 209 17036 25559 500.241 500.341 10 1 1 10 10
1059	1094358 69 22838 23681 500.315 500.321 3 0.1 0.1 0.3 0.03
1060	1094427 46 22842 23201 500.315 500.317 2 0.1 0.1 0.2 0.02
1061	1094473 46 22850 23209 500.315 500.317 2 0.1 0.1 0.2 0.02
1062	1094519 46 22854 23213 500.315 500.317 2 0.1 0.1 0.2 0.02
1063	1094565 46 22858 23217 500.315 500.317 2 0.1 0.1 0.2 0.02
1064	1094611 46 22864 23223 500.315 500.317 2 0.1 0.1 0.2 0.02
1065	1094657 46 22868 23227 500.315 500.317 2 0.1 0.1 0.2 0.02
1066	1094703 46 22888 23247 500.315 500.317 2 0.1 0.1 0.2 0.02
1067	1094749 23 23249 23249 500.317 500.317 1 0.1 0.1 0.1 0.01
1068	1094772 69 18881 23735 500.265 500.321 3 0.1 0.1 0.3 0.03
1069	1094841 21 24040 24040 500.325 500.325 1 1 1 1 1
1070	1094862 21 24071 24071 500.325 500.325 1 0 0 0 0
1071	1094883 21 24071 24071 500.325 500.325 1 1 1 1 1
1073	1094904 42 19439 19439 500.272 500.272 2 0 5 5 25
1075	1094946 42 19412 24074 500.272 500.325 2 1 3 4 10
1080	1094988 21 24410 24410 500.331 500.331 1 1 1 1 1
1081	1095009 21 24441 24441 500.331 500.331 1 0 0 0 0
1082	1095030 21 24441 24441 500.331 500.331 1 1 1 1 1
1084	1095051 40 23560 23560 500.32 500.32 2 0 5 5 25
1086	1095091 41 23550 24444 500.32 500.331 2 1 3 4 10
1091	1095132 42 16692 25215 500.239 500.339 2 5 5 10 50
1092	1095174 42 16693 25216 500.239 500.339 2 1 1 2 2
1093	1095216 42 16693 25216 500.239 500.339 2 1 1 2 2
1094	1095258 42 16693 25216 500.239 500.339 2 1 1 2 2
1095	1095300 42 16694 25217 500.239 500.339 2 1 1 2 2
1096	1095342 36 17675 17675 500.252 500.252 1 0.02020202020202 0.02020202020202 0.02020202020202 0.00040812162024283
1097	1095378 36 17675 17675 500.252 500.252 1 0.02020202020202 0.02020202020202 0.02020202020202 0.00040812162024283
1098	1095414 36 17693 17693 500.252 500.252 1 0.02020202020202 0.02020202020202 0.02020202020202 0.00040812162024283
1099	1095450 21 18706 18706 500.264 500.264 1 5 5 5 25
1100	1095471 21 18707 18707 500.264 500.264 1 1 1 1 1
1101	1095492 21 18707 18707 500.264 500.264 1 1 1 1 1
1102	1095513 21 18707 18707 500.264 500.264 1 1 1 1 1
1103	1095534 21 18708 18708 500.264 500.264 1 1 1 1 1
1104	1095555 21 19439 19439 500.272 500.272 1 5 5 5 25
1105	1095576 21 19440 19440 500.272 500.272 1 1 1 1 1
1106	1095597 21 19440 19440 500.272 500.272 1 2 2 2 4
1107	1095618 21 19440 19440 500.272 500.272 1 1 1 1 1
1108	1095639 21 19441 19441 500.272 500.272 1 1 1 1 1
1109	1095660 114 18859 25366 500.265 500.34 5 0.1 0.1 0.5 0.05
1110	1095774 92 18869 23721 500.265 500.321 4 0.1 0.1 0.4 0.04
1111	1095866 23 22890 22890 500.315 500.315 1 0.1 0.1 0.1 0.01
1112	1095889 20 23560 23560 500.32 500.32 1 5 5 5 25
1113	1095909 20 23561 23561 500.32 500.32 1 1 1 1 1
1114	1095929 20 23561 23561 500.32 500.32 1 0 0 0 0
1115	1095949 20 23561 23561 500.32 500.32 1 1 1 1 1
1116	1095969 20 23562 23562 500.32 500.32 1 1 1 1 1
1117	1095989 36 24115 24115 500.326 500.326 1 0.03030303030303 0.03030303030303 0.03030303030303 0.00091827364554637
1118	1096025 36 24115 24115 500.326 500.326 1 0.03030303030303 0.03030303030303 0.03030303030303 0.00091827364554637
1119	1096061 36 24139 24139 500.326 500.326 1 0.03030303030303 0.03030303030303 0.03030303030303 0.00091827364554637
1120	1096097 37 24487 24487 500.332 500.332 1 0.027210884353741 0.027210884353741 0.027210884353741 0.00074043222731269
1121	1096134 37 24487 24487 500.332 500.332 1 0.027210884353741 0.027210884353741 0.027210884353741 0.00074043222731269
1122	1096171 37 24509 24509 500.332 500.332 1 0.027210884353741 0.027210884353741 0.027210884353741 0.00074043222731269
1123	1096208 36 24615 24615 500.334 500.334 1 0.03030303030303 0.03030303030303 0.03030303030303 0.00091827364554637
1124	1096244 36 24615 24615 500.334 500.334 1 0.03030303030303 0.03030303030303 0.03030303030303 0.00091827364554637
1125	1096280 36 24634 24634 500.334 500.334 1 0.03030303030303 0.03030303030303 0.03030303030303 0.00091827364554637
1126	1096316 113 16815 25338 500.24 500.34 5 0.1 0.1 0.5 0.05
1127	1096429 90 16819 25342 500.24 500.34 4 0.1 0.1 0.4 0.04
1128	1096519 113 16821 25344 500.24 500.34 5 0.1 0.1 0.5 0.05
1129	1096632 113 16823 25346 500.24 500.34 5 0.1 0.1 0.5 0.05
1130	1096745 113 16827 25350 500.24 500.34 5 0.1 0.1 0.5 0.05
1131	1096858 113 16839 25362 500.24 500.34 5 0.1 0.1 0.5 0.05
1132	1096971 113 16845 25368 500.24 500.34 5 0.1 0.1 0.5 0.05
1133	1097084 113 16847 25370 500.24 500.34 5 0.1 0.1 0.5 0.05
1134	1097197 113 16849 25372 500.24 500.34 5 0.1 0.1 0.5 0.05
1135	1097310 113 16851 25374 500.24 500.34 5 0.1 0.1 0.5 0.05
1136	1097423 90 16855 25378 500.24 500.34 4 0.1 0.1 0.4 0.04
1137	1097513 113 16857 25380 500.24 500.34 5 0.1 0.1 0.5 0.05
1138	1097626 113 16859 25382 500.24 500.34 5 0.1 0.1 0.5 0.05
1139	1097739 113 16869 25392 500.24 500.34 5 0.1 0.1 0.5 0.05
1140	1097852 73 16888 25411 500.241 500.341 2 0.02020202020202 0.033670033670034 0.053872053872054 0.001541792787584
1141	1097925 73 16888 25411 500.241 500.341 2 0.02020202020202 0.033670033670034 0.053872053872054 0.001541792787584
1142	1097998 73 16905 25428 500.241 500.341 2 0.02020202020202 0.033670033670034 0.053872053872054 0.001541792787584
1143	1098071 21 17232 17232 500.245 500.245 1 1 1 1 1
1144	1098092 21 17263 17263 500.245 500.245 1 0 0 0 0
1145	1098113 21 17263 17263 500.245 500.245 1 1 1 1 1
1146	1098134 21 17266 17266 500.245 500.245 1 5 5 5 25
1147	1098155 61 17266 18220 500.245 500.26 3 0 5 5 25
1148	1098216 21 17266 17266 500.245 500.245 1 1 1 1 1
1149	1098237 41 17266 18215 500.245 500.26 2 1 3 4 10
1150	1098278 26 17268 17268 500.245 500.245 1 500.26 500.26 500.26 250260.0676
1151	1098304 21 17268 17268 500.245 500.245 1 1 1 1 1
1152	1098325 21 17268 17268 500.245 500.245 1 1 1 1 1
1153	1098346 21 17268 17268 500.245 500.245 1 0 0 0 0
1154	1098367 37 17866 17866 500.255 500.255 1 0.017006802721088 0.017006802721088 0.017006802721088 0.00028923133879402
1155	1098404 37 17866 17866 500.255 500.255 1 0.017006802721088 0.017006802721088 0.017006802721088 0.00028923133879402
1156	1098441 37 17878 17878 500.255 500.255 1 0.017006802721088 0.017006802721088 0.017006802721088 0.00028923133879402
1157	1098478 21 18089 18089 500.259 500.259 1 1 1 1 1
1158	1098499 21 18120 18120 500.259 500.259 1 0 0 0 0
1159	1098520 21 18120 18120 500.259 500.259 1 1 1 1 1
1160	1098541 22 18123 18123 500.259 500.259 1 10 10 10 100
1161	1098563 21 18123 18123 500.259 500.259 1 0 0 0 0
1162	1098584 21 18123 18123 500.259 500.259 1 1 1 1 1
1163	1098605 21 18123 18123 500.259 500.259 1 1 1 1 1
1164	1098626 27 18125 18125 500.259 500.259 1 500.345 500.345 500.345 250345.119025
1165	1098653 21 18125 18125 500.259 500.259 1 0 0 0 0
1166	1098674 21 18125 18125 500.259 500.259 1 1 1 1 1
1167	1098695 21 18125 18125 500.259 500.259 1 0 0 0 0
1168	1098716 20 18220 18220 500.26 500.26 1 5 5 5 25
1169	1098736 20 18221 18221 500.26 500.26 1 1 1 1 1
1170	1098756 20 18221 18221 500.26 500.26 1 1 1 1 1
1171	1098776 20 18221 18221 500.26 500.26 1 1 1 1 1
1172	1098796 20 18222 18222 500.26 500.26 1 1 1 1 1
1173	1098816 21 18635 18635 500.264 500.264 1 1 1 1 1
1174	1098837 21 18666 18666 500.264 500.264 1 0 0 0 0
1175	1098858 21 18666 18666 500.264 500.264 1 1 1 1 1
1176	1098879 21 18669 18669 500.264 500.264 1 8 8 8 64
1177	1098900 63 18669 20653 500.264 500.288 3 0 5 5 25
1178	1098963 21 18669 18669 500.264 500.264 1 1 1 1 1
1179	1098984 42 18669 20635 500.264 500.288 2 1 3 4 10
1180	1099026 27 18671 18671 500.264 500.264 1 500.288 500.288 500.288 250288.082944
1181	1099053 21 18671 18671 500.264 500.264 1 2 2 2 4
1182	1099074 21 18671 18671 500.264 500.264 1 1 1 1 1
1183	1099095 21 18671 18671 500.264 500.264 1 0 0 0 0
1184	1099116 92 18845 23699 500.265 500.321 4 0.1 0.1 0.4 0.04
1185	1099208 69 18849 23703 500.265 500.321 3 0.1 0.1 0.3 0.03
1186	1099277 91 18851 25358 500.265 500.34 4 0.1 0.2 0.5 0.07
1187	1099368 21 19061 19061 500.267 500.267 1 1 1 1 1
1188	1099389 21 19092 19092 500.267 500.267 1 0 0 0 0
1189	1099410 21 19092 19092 500.267 500.267 1 1 1 1 1
1190	1099431 22 19095 19095 500.267 500.267 1 15 15 15 225
1191	1099453 63 19095 24856 500.267 500.337 3 0 5 5 25
1192	1099516 21 19095 19095 500.267 500.267 1 1 1 1 1
1193	1099537 42 19095 24833 500.267 500.337 2 1 3 4 10
1194	1099579 27 19097 19097 500.267 500.267 1 500.337 500.337 500.337 250337.113569
1195	1099606 21 19097 19097 500.267 500.267 1 0 0 0 0
1196	1099627 21 19097 19097 500.267 500.267 1 1 1 1 1
1197	1099648 21 19097 19097 500.267 500.267 1 0 0 0 0
1198	1099669 21 19128 19128 500.268 500.268 1 1 1 1 1
1199	1099690 21 19159 19159 500.268 500.268 1 0 0 0 0
1200	1099711 21 19159 19159 500.268 500.268 1 1 1 1 1
1201	1099732 22 19162 19162 500.268 500.268 1 14 14 14 196
1202	1099754 61 19162 21017 500.268 500.29 3 0 5 5 25
1203	1099815 21 19162 19162 500.268 500.268 1 1 1 1 1
1204	1099836 41 19162 20966 500.268 500.29 2 1 3 4 10
1205	1099877 26 19164 19164 500.268 500.268 1 500.29 500.29 500.29 250290.0841
1206	1099903 21 19164 19164 500.268 500.268 1 1 1 1 1
1207	1099924 21 19164 19164 500.268 500.268 1 1 1 1 1
1208	1099945 21 19164 19164 500.268 500.268 1 0 0 0 0
1209	1099966 37 20408 20408 500.285 500.285 1 0.023569023569024 0.023569023569024 0.023569023569024 0.00055549887199719
1210	1100003 37 20408 20408 500.285 500.285 1 0.023569023569024 0.023569023569024 0.023569023569024 0.00055549887199719
1211	1100040 37 20438 20438 500.285 500.285 1 0.023569023569024 0.023569023569024 0.023569023569024 0.00055549887199719
1212	1100077 21 20653 20653 500.288 500.288 1 5 5 5 25
1213	1100098 21 20654 20654 500.288 500.288 1 1 1 1 1
1214	1100119 21 20654 20654 500.288 500.288 1 2 2 2 4
1215	1100140 21 20654 20654 500.288 500.288 1 1 1 1 1
1216	1100161 21 20655 20655 500.288 500.288 1 1 1 1 1
1217	1100182 20 21017 21017 500.29 500.29 1 5 5 5 25
1218	1100202 20 21018 21018 500.29 500.29 1 1 1 1 1
1219	1100222 20 21018 21018 500.29 500.29 1 1 1 1 1
1220	1100242 20 21018 21018 500.29 500.29 1 1 1 1 1
1221	1100262 20 21019 21019 500.29 500.29 1 1 1 1 1
1222	1100282 21 24665 24665 500.335 500.335 1 1 1 1 1
1223	1100303 21 24696 24696 500.335 500.335 1 0 0 0 0
1224	1100324 21 24696 24696 500.335 500.335 1 1 1 1 1
1225	1100345 22 24699 24699 500.335 500.335 1 14 14 14 196
1226	1100367 21 24699 24699 500.335 500.335 1 0 0 0 0
1227	1100388 21 24699 24699 500.335 500.335 1 1 1 1 1
1228	1100409 21 24699 24699 500.335 500.335 1 1 1 1 1
1229	1100430 27 24701 24701 500.335 500.335 1 500.375 500.375 500.375 250375.140625
1230	1100457 21 24701 24701 500.335 500.335 1 0 0 0 0
1231	1100478 21 24701 24701 500.335 500.335 1 1 1 1 1
1232	1100499 21 24701 24701 500.335 500.335 1 0 0 0 0
1233	1100520 21 24856 24856 500.337 500.337 1 5 5 5 25
1234	1100541 21 24857 24857 500.337 500.337 1 1 1 1 1
1235	1100562 21 24857 24857 500.337 500.337 1 0 0 0 0
1236	1100583 21 24857 24857 500.337 500.337 1 1 1 1 1
1237	1100604 21 24858 24858 500.337 500.337 1 1 1 1 1

