version 2
run Hackathon114-0-20220725-13:37:21-9347
attr configname Hackathon114
attr datetime 20220725-13:37:21
attr experiment Hackathon114
attr inifile omnetpp.ini
attr iterationvars ""
attr iterationvarsf ""
attr measurement ""
attr network lte.simulations.Mode4.Highway
attr processid 9347
attr repetition 0
attr replication #0
attr resultdir results
attr runnumber 0
attr seedset 0
param *.car[*].d2dCapable true
param *.car[*].mode4D2D true
param **.amcMode "\"D2D\""
param *.car[*].applType "\"Mode4App\""
param *.car[*].appl.packetSize 190
param *.car[*].nicType "\"LteNicVUeMode4\""
param *.car[*].lteNic.d2dCapable true
param *.car[*].lteNic.pdcpRrc.ipBased false
param *.car[*].lteNic.rlc.ipBased false
param *.car[*].lteNic.mac.subchannelSize 16
param *.car[*].lteNic.mac.numSubchannels 3
param *.car[*].lteNic.mac.probResourceKeep 0.4
param *.car[*].lteNic.mac.useCBR false
param *.car[*].lteNic.mac.crLimit false
param *.car[*].lteNic.mac.rriLookup false
param *.car[*].lteNic.mac.dccMechanism false
param *.car[*].lteNic.mac.packetDropping false
param *.car[*].lteNic.mac.reselectAfter 1
param *.car[*].lteNic.mac.adjacencyPSCCHPSSCH true
param *.car[*].lteNic.rlc.um.scenario3gpp false
param *.car[*].lteNic.phy.subchannelSize 16
param *.car[*].lteNic.phy.numSubchannels 3
param *.car[*].lteNic.phy.selectionWindowStartingSubframe 1
param *.car[*].lteNic.phy.adjacencyPSCCHPSSCH true
param *.car[*].lteNic.phy.pStep 100
param *.car[*].lteNic.phy.thresholdRSSI 10
param *.car[*].ueTxPower 23
param *.car[*].lteNic.phy.d2dTxPower 23
param *.**.nic.lteNic.phy.usePropagationDelay true
param *.visualizer.mediumVisualizer.displaySignals true
param *.visualizer.physicalLinkVisualizer.displayLinks true
param *.visualizer.physicalLinkVisualizer.packetFilter "\"Mode4Data*\""
param **.usePreconfiguredTxParams true
param **.lteNic.mac.txConfig "xmldoc(\"sidelink_configuration.xml\")"
param **.coreDebug false
param **.routingRecorder.enabled false
param *.playgroundSizeX 2000000m
param *.playgroundSizeY 2000000m
param *.playgroundSizeZ 50m
param **.channelControl.pMax 10W
param **.channelControl.alpha 1.0
param **.channelControl.carrierFrequency 6000e+6Hz
param **.lteNic.phy.channelModel "xmldoc(\"config_channel.xml\")"
param **.feedbackComputation "xmldoc(\"config_channel.xml\")"
param **.rbAllocationType "\"localized\""
param **.feedbackType "\"ALLBANDS\""
param **.feedbackGeneratorType "\"IDEAL\""
param **.maxHarqRtx 0
param **.deployer.ruRange 50
param **.deployer.ruTxPower "\"50,50,50;\""
param **.deployer.antennaCws "\"2;\""
param **.deployer.numRbDl 51
param **.deployer.numRbUl 48
param **.numBands 48
param **.fbDelay 1
param *.veinsManager.moduleType "\"lte.corenetwork.nodes.cars.CarIPv6\""
param *.veinsManager.moduleName "\"car\""
param *.veinsManager.moduleDisplayString "\"\""
param *.veinsManager.launchConfig "xmldoc(\"highway/006vpm/highway.launchd.xml\")"
param *.veinsManager.updateInterval 0.1s
param *.veinsManager.firstStepAt 500s
param *.car[*].mobilityType "\"VeinsInetMobility\""
param **.deployer.positionUpdateInterval 0.01s

vector 0 Highway.car[0].lteNic.phy servingCell:vector ETV
attr source servingCell
attr title "ID of the serving eNodeB for the UE, vector"
attr unit ""
vector 1 Highway.car[0].lteNic.mac macNodeID:vector ETV
attr source macNodeID
attr title "Reports Mac NodeID to allow for trans to nodeID, vector"
vector 2 Highway.car[1].lteNic.phy servingCell:vector ETV
attr source servingCell
attr title "ID of the serving eNodeB for the UE, vector"
attr unit ""
vector 3 Highway.car[1].lteNic.mac macNodeID:vector ETV
attr source macNodeID
attr title "Reports Mac NodeID to allow for trans to nodeID, vector"
vector 4 Highway.car[2].lteNic.phy servingCell:vector ETV
attr source servingCell
attr title "ID of the serving eNodeB for the UE, vector"
attr unit ""
vector 5 Highway.car[2].lteNic.mac macNodeID:vector ETV
attr source macNodeID
attr title "Reports Mac NodeID to allow for trans to nodeID, vector"
vector 6 Highway.car[3].lteNic.phy servingCell:vector ETV
attr source servingCell
attr title "ID of the serving eNodeB for the UE, vector"
attr unit ""
vector 7 Highway.car[3].lteNic.mac macNodeID:vector ETV
attr source macNodeID
attr title "Reports Mac NodeID to allow for trans to nodeID, vector"
vector 8 Highway.car[4].lteNic.phy servingCell:vector ETV
attr source servingCell
attr title "ID of the serving eNodeB for the UE, vector"
attr unit ""
vector 9 Highway.car[4].lteNic.mac macNodeID:vector ETV
attr source macNodeID
attr title "Reports Mac NodeID to allow for trans to nodeID, vector"
vector 10 Highway.car[5].lteNic.phy servingCell:vector ETV
attr source servingCell
attr title "ID of the serving eNodeB for the UE, vector"
attr unit ""
vector 11 Highway.car[5].lteNic.mac macNodeID:vector ETV
attr source macNodeID
attr title "Reports Mac NodeID to allow for trans to nodeID, vector"
vector 12 Highway.car[6].lteNic.phy servingCell:vector ETV
attr source servingCell
attr title "ID of the serving eNodeB for the UE, vector"
attr unit ""
vector 13 Highway.car[6].lteNic.mac macNodeID:vector ETV
attr source macNodeID
attr title "Reports Mac NodeID to allow for trans to nodeID, vector"
vector 14 Highway.car[7].lteNic.phy servingCell:vector ETV
attr source servingCell
attr title "ID of the serving eNodeB for the UE, vector"
attr unit ""
vector 15 Highway.car[7].lteNic.mac macNodeID:vector ETV
attr source macNodeID
attr title "Reports Mac NodeID to allow for trans to nodeID, vector"
vector 16 Highway.car[8].lteNic.phy servingCell:vector ETV
attr source servingCell
attr title "ID of the serving eNodeB for the UE, vector"
attr unit ""
vector 17 Highway.car[8].lteNic.mac macNodeID:vector ETV
attr source macNodeID
attr title "Reports Mac NodeID to allow for trans to nodeID, vector"
vector 18 Highway.car[9].lteNic.phy servingCell:vector ETV
attr source servingCell
attr title "ID of the serving eNodeB for the UE, vector"
attr unit ""
vector 19 Highway.car[9].lteNic.mac macNodeID:vector ETV
attr source macNodeID
attr title "Reports Mac NodeID to allow for trans to nodeID, vector"
vector 20 Highway.car[10].lteNic.phy servingCell:vector ETV
attr source servingCell
attr title "ID of the serving eNodeB for the UE, vector"
attr unit ""
vector 21 Highway.car[10].lteNic.mac macNodeID:vector ETV
attr source macNodeID
attr title "Reports Mac NodeID to allow for trans to nodeID, vector"
vector 22 Highway.car[11].lteNic.phy servingCell:vector ETV
attr source servingCell
attr title "ID of the serving eNodeB for the UE, vector"
attr unit ""
vector 23 Highway.car[11].lteNic.mac macNodeID:vector ETV
attr source macNodeID
attr title "Reports Mac NodeID to allow for trans to nodeID, vector"
vector 24 Highway.car[12].lteNic.phy servingCell:vector ETV
attr source servingCell
attr title "ID of the serving eNodeB for the UE, vector"
attr unit ""
vector 25 Highway.car[12].lteNic.mac macNodeID:vector ETV
attr source macNodeID
attr title "Reports Mac NodeID to allow for trans to nodeID, vector"
vector 26 Highway.car[13].lteNic.phy servingCell:vector ETV
attr source servingCell
attr title "ID of the serving eNodeB for the UE, vector"
attr unit ""
vector 27 Highway.car[13].lteNic.mac macNodeID:vector ETV
attr source macNodeID
attr title "Reports Mac NodeID to allow for trans to nodeID, vector"
vector 28 Highway.car[14].lteNic.phy servingCell:vector ETV
attr source servingCell
attr title "ID of the serving eNodeB for the UE, vector"
attr unit ""
vector 29 Highway.car[14].lteNic.mac macNodeID:vector ETV
attr source macNodeID
attr title "Reports Mac NodeID to allow for trans to nodeID, vector"
vector 30 Highway.car[15].lteNic.phy servingCell:vector ETV
attr source servingCell
attr title "ID of the serving eNodeB for the UE, vector"
attr unit ""
vector 31 Highway.car[15].lteNic.mac macNodeID:vector ETV
attr source macNodeID
attr title "Reports Mac NodeID to allow for trans to nodeID, vector"
vector 32 Highway.car[16].lteNic.phy servingCell:vector ETV
attr source servingCell
attr title "ID of the serving eNodeB for the UE, vector"
attr unit ""
vector 33 Highway.car[16].lteNic.mac macNodeID:vector ETV
attr source macNodeID
attr title "Reports Mac NodeID to allow for trans to nodeID, vector"
vector 34 Highway.car[17].lteNic.phy servingCell:vector ETV
attr source servingCell
attr title "ID of the serving eNodeB for the UE, vector"
attr unit ""
vector 35 Highway.car[17].lteNic.mac macNodeID:vector ETV
attr source macNodeID
attr title "Reports Mac NodeID to allow for trans to nodeID, vector"
vector 36 Highway.car[18].lteNic.phy servingCell:vector ETV
attr source servingCell
attr title "ID of the serving eNodeB for the UE, vector"
attr unit ""
vector 37 Highway.car[18].lteNic.mac macNodeID:vector ETV
attr source macNodeID
attr title "Reports Mac NodeID to allow for trans to nodeID, vector"
vector 38 Highway.car[19].lteNic.phy servingCell:vector ETV
attr source servingCell
attr title "ID of the serving eNodeB for the UE, vector"
attr unit ""
vector 39 Highway.car[19].lteNic.mac macNodeID:vector ETV
attr source macNodeID
attr title "Reports Mac NodeID to allow for trans to nodeID, vector"
vector 40 Highway.car[20].lteNic.phy servingCell:vector ETV
attr source servingCell
attr title "ID of the serving eNodeB for the UE, vector"
attr unit ""
vector 41 Highway.car[20].lteNic.mac macNodeID:vector ETV
attr source macNodeID
attr title "Reports Mac NodeID to allow for trans to nodeID, vector"
vector 42 Highway.car[21].lteNic.phy servingCell:vector ETV
attr source servingCell
attr title "ID of the serving eNodeB for the UE, vector"
attr unit ""
vector 43 Highway.car[21].lteNic.mac macNodeID:vector ETV
attr source macNodeID
attr title "Reports Mac NodeID to allow for trans to nodeID, vector"
vector 44 Highway.car[22].lteNic.phy servingCell:vector ETV
attr source servingCell
attr title "ID of the serving eNodeB for the UE, vector"
attr unit ""
vector 45 Highway.car[22].lteNic.mac macNodeID:vector ETV
attr source macNodeID
attr title "Reports Mac NodeID to allow for trans to nodeID, vector"
vector 46 Highway.car[23].lteNic.phy servingCell:vector ETV
attr source servingCell
attr title "ID of the serving eNodeB for the UE, vector"
attr unit ""
vector 47 Highway.car[23].lteNic.mac macNodeID:vector ETV
attr source macNodeID
attr title "Reports Mac NodeID to allow for trans to nodeID, vector"
vector 48 Highway.car[24].lteNic.phy servingCell:vector ETV
attr source servingCell
attr title "ID of the serving eNodeB for the UE, vector"
attr unit ""
vector 49 Highway.car[24].lteNic.mac macNodeID:vector ETV
attr source macNodeID
attr title "Reports Mac NodeID to allow for trans to nodeID, vector"
vector 50 Highway.car[25].lteNic.phy servingCell:vector ETV
attr source servingCell
attr title "ID of the serving eNodeB for the UE, vector"
attr unit ""
vector 51 Highway.car[25].lteNic.mac macNodeID:vector ETV
attr source macNodeID
attr title "Reports Mac NodeID to allow for trans to nodeID, vector"
vector 52 Highway.car[26].lteNic.phy servingCell:vector ETV
attr source servingCell
attr title "ID of the serving eNodeB for the UE, vector"
attr unit ""
vector 53 Highway.car[26].lteNic.mac macNodeID:vector ETV
attr source macNodeID
attr title "Reports Mac NodeID to allow for trans to nodeID, vector"
vector 54 Highway.car[27].lteNic.phy servingCell:vector ETV
attr source servingCell
attr title "ID of the serving eNodeB for the UE, vector"
attr unit ""
vector 55 Highway.car[27].lteNic.mac macNodeID:vector ETV
attr source macNodeID
attr title "Reports Mac NodeID to allow for trans to nodeID, vector"
vector 56 Highway.car[28].lteNic.phy servingCell:vector ETV
attr source servingCell
attr title "ID of the serving eNodeB for the UE, vector"
attr unit ""
vector 57 Highway.car[28].lteNic.mac macNodeID:vector ETV
attr source macNodeID
attr title "Reports Mac NodeID to allow for trans to nodeID, vector"
vector 58 Highway.car[29].lteNic.phy servingCell:vector ETV
attr source servingCell
attr title "ID of the serving eNodeB for the UE, vector"
attr unit ""
vector 59 Highway.car[29].lteNic.mac macNodeID:vector ETV
attr source macNodeID
attr title "Reports Mac NodeID to allow for trans to nodeID, vector"
vector 60 Highway.car[0].lteNic.phy posX:vector ETV
attr source posX
attr title "X position of node (at reception time), vector"
vector 61 Highway.car[0].lteNic.phy posY:vector ETV
attr source posY
attr title "Y position of node (at reception time), vector"
vector 62 Highway.car[1].lteNic.phy posX:vector ETV
attr source posX
attr title "X position of node (at reception time), vector"
vector 63 Highway.car[1].lteNic.phy posY:vector ETV
attr source posY
attr title "Y position of node (at reception time), vector"
vector 64 Highway.car[2].lteNic.phy posX:vector ETV
attr source posX
attr title "X position of node (at reception time), vector"
vector 65 Highway.car[2].lteNic.phy posY:vector ETV
attr source posY
attr title "Y position of node (at reception time), vector"
vector 66 Highway.car[3].lteNic.phy posX:vector ETV
attr source posX
attr title "X position of node (at reception time), vector"
vector 67 Highway.car[3].lteNic.phy posY:vector ETV
attr source posY
attr title "Y position of node (at reception time), vector"
vector 68 Highway.car[4].lteNic.phy posX:vector ETV
attr source posX
attr title "X position of node (at reception time), vector"
vector 69 Highway.car[4].lteNic.phy posY:vector ETV
attr source posY
attr title "Y position of node (at reception time), vector"
vector 70 Highway.car[5].lteNic.phy posX:vector ETV
attr source posX
attr title "X position of node (at reception time), vector"
vector 71 Highway.car[5].lteNic.phy posY:vector ETV
attr source posY
attr title "Y position of node (at reception time), vector"
vector 72 Highway.car[6].lteNic.phy posX:vector ETV
attr source posX
attr title "X position of node (at reception time), vector"
vector 73 Highway.car[6].lteNic.phy posY:vector ETV
attr source posY
attr title "Y position of node (at reception time), vector"
vector 74 Highway.car[7].lteNic.phy posX:vector ETV
attr source posX
attr title "X position of node (at reception time), vector"
vector 75 Highway.car[7].lteNic.phy posY:vector ETV
attr source posY
attr title "Y position of node (at reception time), vector"
vector 76 Highway.car[8].lteNic.phy posX:vector ETV
attr source posX
attr title "X position of node (at reception time), vector"
vector 77 Highway.car[8].lteNic.phy posY:vector ETV
attr source posY
attr title "Y position of node (at reception time), vector"
vector 78 Highway.car[9].lteNic.phy posX:vector ETV
attr source posX
attr title "X position of node (at reception time), vector"
vector 79 Highway.car[9].lteNic.phy posY:vector ETV
attr source posY
attr title "Y position of node (at reception time), vector"
vector 80 Highway.car[10].lteNic.phy posX:vector ETV
attr source posX
attr title "X position of node (at reception time), vector"
vector 81 Highway.car[10].lteNic.phy posY:vector ETV
attr source posY
attr title "Y position of node (at reception time), vector"
vector 82 Highway.car[11].lteNic.phy posX:vector ETV
attr source posX
attr title "X position of node (at reception time), vector"
vector 83 Highway.car[11].lteNic.phy posY:vector ETV
attr source posY
attr title "Y position of node (at reception time), vector"
vector 84 Highway.car[12].lteNic.phy posX:vector ETV
attr source posX
attr title "X position of node (at reception time), vector"
vector 85 Highway.car[12].lteNic.phy posY:vector ETV
attr source posY
attr title "Y position of node (at reception time), vector"
vector 86 Highway.car[13].lteNic.phy posX:vector ETV
attr source posX
attr title "X position of node (at reception time), vector"
vector 87 Highway.car[13].lteNic.phy posY:vector ETV
attr source posY
attr title "Y position of node (at reception time), vector"
vector 88 Highway.car[13].lteNic.phy cbr:vector ETV
attr source cbr
attr title "Channel Busy Ratio, vector"
vector 89 Highway.car[13].lteNic.phy cbrPscch:vector ETV
attr source cbrPscch
attr title "Channel Busy Ratio for PSCCH, vector"
vector 90 Highway.car[14].lteNic.phy posX:vector ETV
attr source posX
attr title "X position of node (at reception time), vector"
vector 91 Highway.car[14].lteNic.phy posY:vector ETV
attr source posY
attr title "Y position of node (at reception time), vector"
vector 92 Highway.car[15].lteNic.phy posX:vector ETV
attr source posX
attr title "X position of node (at reception time), vector"
vector 93 Highway.car[15].lteNic.phy posY:vector ETV
attr source posY
attr title "Y position of node (at reception time), vector"
vector 94 Highway.car[16].lteNic.phy posX:vector ETV
attr source posX
attr title "X position of node (at reception time), vector"
vector 95 Highway.car[16].lteNic.phy posY:vector ETV
attr source posY
attr title "Y position of node (at reception time), vector"
vector 96 Highway.car[17].lteNic.phy posX:vector ETV
attr source posX
attr title "X position of node (at reception time), vector"
vector 97 Highway.car[17].lteNic.phy posY:vector ETV
attr source posY
attr title "Y position of node (at reception time), vector"
vector 98 Highway.car[18].lteNic.phy posX:vector ETV
attr source posX
attr title "X position of node (at reception time), vector"
vector 99 Highway.car[18].lteNic.phy posY:vector ETV
attr source posY
attr title "Y position of node (at reception time), vector"
vector 100 Highway.car[19].lteNic.phy posX:vector ETV
attr source posX
attr title "X position of node (at reception time), vector"
vector 101 Highway.car[19].lteNic.phy posY:vector ETV
attr source posY
attr title "Y position of node (at reception time), vector"
vector 102 Highway.car[20].lteNic.phy posX:vector ETV
attr source posX
attr title "X position of node (at reception time), vector"
vector 103 Highway.car[20].lteNic.phy posY:vector ETV
attr source posY
attr title "Y position of node (at reception time), vector"
vector 104 Highway.car[21].lteNic.phy posX:vector ETV
attr source posX
attr title "X position of node (at reception time), vector"
vector 105 Highway.car[21].lteNic.phy posY:vector ETV
attr source posY
attr title "Y position of node (at reception time), vector"
vector 106 Highway.car[22].lteNic.phy posX:vector ETV
attr source posX
attr title "X position of node (at reception time), vector"
vector 107 Highway.car[22].lteNic.phy posY:vector ETV
attr source posY
attr title "Y position of node (at reception time), vector"
vector 108 Highway.car[23].lteNic.phy posX:vector ETV
attr source posX
attr title "X position of node (at reception time), vector"
vector 109 Highway.car[23].lteNic.phy posY:vector ETV
attr source posY
attr title "Y position of node (at reception time), vector"
vector 110 Highway.car[24].lteNic.phy posX:vector ETV
attr source posX
attr title "X position of node (at reception time), vector"
vector 111 Highway.car[24].lteNic.phy posY:vector ETV
attr source posY
attr title "Y position of node (at reception time), vector"
vector 112 Highway.car[25].lteNic.phy posX:vector ETV
attr source posX
attr title "X position of node (at reception time), vector"
vector 113 Highway.car[25].lteNic.phy posY:vector ETV
attr source posY
attr title "Y position of node (at reception time), vector"
vector 114 Highway.car[26].lteNic.phy posX:vector ETV
attr source posX
attr title "X position of node (at reception time), vector"
vector 115 Highway.car[26].lteNic.phy posY:vector ETV
attr source posY
attr title "Y position of node (at reception time), vector"
vector 116 Highway.car[27].lteNic.phy posX:vector ETV
attr source posX
attr title "X position of node (at reception time), vector"
vector 117 Highway.car[27].lteNic.phy posY:vector ETV
attr source posY
attr title "Y position of node (at reception time), vector"
vector 118 Highway.car[28].lteNic.phy posX:vector ETV
attr source posX
attr title "X position of node (at reception time), vector"
vector 119 Highway.car[28].lteNic.phy posY:vector ETV
attr source posY
attr title "Y position of node (at reception time), vector"
vector 120 Highway.car[29].lteNic.phy posX:vector ETV
attr source posX
attr title "X position of node (at reception time), vector"
vector 121 Highway.car[29].lteNic.phy posY:vector ETV
attr source posY
attr title "Y position of node (at reception time), vector"
vector 122 Highway.car[13].lteNic.mac receivedPacketFromLowerLayer:vector(packetBytes) ETV
attr interpolationmode none
attr source receivedPacketFromLowerLayer
vector 123 Highway.car[13].lteNic.mac sentPacketToUpperLayer:vector(packetBytes) ETV
attr interpolationmode none
attr source sentPacketToUpperLayer
vector 124 Highway.car[13].lteNic.pdcpRrc sentPacketToUpperLayer:vector(packetBytes) ETV
attr interpolationmode none
attr source sentPacketToUpperLayer
vector 125 Highway.car[13].appl cbr:vector ETV
attr source cbr
attr title "Channel Busy Ratio, vector"
attr unit ""
vector 126 Highway.car[26].appl sentMsg:vector ETV
attr source sentMsg
attr title "Messages sent, vector"
attr unit ""
vector 127 Highway.car[26].lteNic.pdcpRrc receivedPacketFromUpperLayer:vector(packetBytes) ETV
attr interpolationmode none
attr source receivedPacketFromUpperLayer
vector 128 Highway.car[26].lteNic.pdcpRrc sentPacketToLowerLayer:vector(packetBytes) ETV
attr interpolationmode none
attr source sentPacketToLowerLayer
vector 129 Highway.car[26].lteNic.mac resourceReselectionCounter:vector ETV
attr source resourceReselectionCounter
attr title "ResourceReselectionCounter selectedNumber of transmissions, vector"
vector 130 Highway.car[26].lteNic.mac sentPacketToLowerLayer:vector(packetBytes) ETV
attr interpolationmode none
attr source sentPacketToLowerLayer
vector 131 Highway.car[26].lteNic.mac grantRequests:vector ETV
attr source grantRequests
attr title "Total number of requested grants, vector"
vector 132 Highway.car[26].lteNic.mac receivedPacketFromUpperLayer:vector(packetBytes) ETV
attr interpolationmode none
attr source receivedPacketFromUpperLayer
vector 133 Highway.car[26].lteNic.mac receivedPacketFromLowerLayer:vector(packetBytes) ETV
attr interpolationmode none
attr source receivedPacketFromLowerLayer
vector 134 Highway.car[26].lteNic.mac grantStartTime:vector ETV
attr source grantStartTime
attr title "Grant StartTime, vector"
vector 135 Highway.car[26].lteNic.mac selectedSubchannelIndex:vector ETV
attr source selectedSubchannelIndex
attr title "SelectedSubchannelIndex, vector"
vector 136 Highway.car[26].lteNic.mac selectedNumSubchannels:vector ETV
attr source selectedNumSubchannels
attr title "SelectedNumSubchannels, vector"
vector 137 Highway.car[26].lteNic.mac takingReservedGrant:vector ETV
attr source takingReservedGrant
attr title "takingReservedGrant, vector"
vector 138 Highway.car[26].lteNic.mac sentPacketToUpperLayer:vector(packetBytes) ETV
attr interpolationmode none
attr source sentPacketToUpperLayer
vector 139 Highway.car[26].lteNic.mac selectedMCS:vector ETV
attr source selectedMCS
attr title "MCS selected for transmission, vector"
vector 140 Highway.car[26].lteNic.phy sciSent:vector ETV
attr source sciSent
attr title "Number of sci sent, vector"
vector 141 Highway.car[26].lteNic.phy subchannelSent:vector ETV
attr source subchannelSent
attr title "starting Subchannel used for sent message, vector"
vector 142 Highway.car[26].lteNic.phy subchannelsUsedToSend:vector ETV
attr source subchannelsUsedToSend
attr title "Number of subchannels used for message, vector"
vector 143 Highway.car[26].lteNic.phy tbSent:vector ETV
attr source tbSent
attr title "Number of tb sent, vector"
vector 144 Highway.car[0].lteNic.phy txRxDistanceSCI:vector ETV
attr source txRxDistanceSCI
attr title "Distance between transmitter and receiver, vector"
vector 145 Highway.car[0].lteNic.phy senderID:vector ETV
attr source senderID
attr title "ID of node who sent message, vector"
vector 146 Highway.car[0].lteNic.phy sciReceived:vector ETV
attr source sciReceived
attr title "Number of received sci, vector"
vector 147 Highway.car[0].lteNic.phy sciUnsensed:vector ETV
attr source sciUnsensed
attr title "Number of failed SCIs due to RSRP below threshold, vector"
vector 148 Highway.car[0].lteNic.phy sciDecoded:vector ETV
attr source sciDecoded
attr title "Number of sci successfully decoded, vector"
vector 149 Highway.car[0].lteNic.phy sciFailedDueToProp:vector ETV
attr source sciFailedDueToProp
attr title "Number of failed SCIs due to propogation, vector"
vector 150 Highway.car[0].lteNic.phy sciFailedDueToInterference:vector ETV
attr source sciFailedDueToInterference
attr title "Number of failed SCIs due to interference, vector"
vector 151 Highway.car[0].lteNic.phy sciFailedHalfDuplex:vector ETV
attr source sciFailedHalfDuplex
attr title "Number of failed SCIs due to Half Duplex, vector"
vector 152 Highway.car[0].lteNic.phy subchannelReceived:vector ETV
attr source subchannelReceived
attr title "Initial Subchannel on which packet is received, vector"
vector 153 Highway.car[0].lteNic.phy subchannelsUsed:vector ETV
attr source subchannelsUsed
attr title "Number of Subchannels used for the received packet, vector"
vector 154 Highway.car[0].lteNic.phy txRxDistanceTB:vector ETV
attr source txRxDistanceTB
attr title "Distance between transmitter and receiver, vector"
vector 155 Highway.car[0].lteNic.phy tbReceived:vector ETV
attr source tbReceived
attr title "Number of tb received, vector"
vector 156 Highway.car[0].lteNic.phy tbDecoded:vector ETV
attr source tbDecoded
attr title "Number of tb Decoded, vector"
vector 157 Highway.car[0].lteNic.phy tbFailedDueToNoSCI:vector ETV
attr source tbFailedDueToNoSCI
attr title "Number of tb not decoded due to no SCI, vector"
vector 158 Highway.car[0].lteNic.phy tbFailedDueToProp:vector ETV
attr source tbFailedDueToProp
attr title "Number of failed TBs due to propogation, vector"
vector 159 Highway.car[0].lteNic.phy tbFailedDueToInterference:vector ETV
attr source tbFailedDueToInterference
attr title "Number of failed TBs due to interference, vector"
vector 160 Highway.car[0].lteNic.phy tbFailedButSCIReceived:vector ETV
attr source tbFailedButSCIReceived
attr title "Number of failed TBs with a decoded SCI, vector"
vector 161 Highway.car[0].lteNic.phy tbFailedHalfDuplex:vector ETV
attr source tbFailedHalfDuplex
attr title "Number of failed TBs due to Half Duplex, vector"
vector 162 Highway.car[0].lteNic.phy periodic:vector ETV
attr source periodic
attr title "Identifies traffic as periodic or aperiodic, vector"
vector 163 Highway.car[0].lteNic.phy tbFailedDueToPropIgnoreSCI:vector ETV
attr source tbFailedDueToPropIgnoreSCI
attr title "Number of failed TBs due to propogation, vector"
vector 164 Highway.car[0].lteNic.phy tbFailedDueToInterferenceIgnoreSCI:vector ETV
attr source tbFailedDueToInterferenceIgnoreSCI
attr title "Number of failed TBs due to interference, vector"
vector 165 Highway.car[0].lteNic.phy tbDecodedIgnoreSCI:vector ETV
attr source tbDecodedIgnoreSCI
attr title "Number of failed TBs due to interference, vector"
vector 166 Highway.car[0].lteNic.mac receivedPacketFromLowerLayer:vector(packetBytes) ETV
attr interpolationmode none
attr source receivedPacketFromLowerLayer
vector 167 Highway.car[1].lteNic.phy txRxDistanceSCI:vector ETV
attr source txRxDistanceSCI
attr title "Distance between transmitter and receiver, vector"
vector 168 Highway.car[1].lteNic.phy senderID:vector ETV
attr source senderID
attr title "ID of node who sent message, vector"
vector 169 Highway.car[1].lteNic.phy sciReceived:vector ETV
attr source sciReceived
attr title "Number of received sci, vector"
vector 170 Highway.car[1].lteNic.phy sciUnsensed:vector ETV
attr source sciUnsensed
attr title "Number of failed SCIs due to RSRP below threshold, vector"
vector 171 Highway.car[1].lteNic.phy sciDecoded:vector ETV
attr source sciDecoded
attr title "Number of sci successfully decoded, vector"
vector 172 Highway.car[1].lteNic.phy sciFailedDueToProp:vector ETV
attr source sciFailedDueToProp
attr title "Number of failed SCIs due to propogation, vector"
vector 173 Highway.car[1].lteNic.phy sciFailedDueToInterference:vector ETV
attr source sciFailedDueToInterference
attr title "Number of failed SCIs due to interference, vector"
vector 174 Highway.car[1].lteNic.phy sciFailedHalfDuplex:vector ETV
attr source sciFailedHalfDuplex
attr title "Number of failed SCIs due to Half Duplex, vector"
vector 175 Highway.car[1].lteNic.phy subchannelReceived:vector ETV
attr source subchannelReceived
attr title "Initial Subchannel on which packet is received, vector"
vector 176 Highway.car[1].lteNic.phy subchannelsUsed:vector ETV
attr source subchannelsUsed
attr title "Number of Subchannels used for the received packet, vector"
vector 177 Highway.car[1].lteNic.phy txRxDistanceTB:vector ETV
attr source txRxDistanceTB
attr title "Distance between transmitter and receiver, vector"
vector 178 Highway.car[1].lteNic.phy tbReceived:vector ETV
attr source tbReceived
attr title "Number of tb received, vector"
vector 179 Highway.car[1].lteNic.phy tbDecoded:vector ETV
attr source tbDecoded
attr title "Number of tb Decoded, vector"
vector 180 Highway.car[1].lteNic.phy tbFailedDueToNoSCI:vector ETV
attr source tbFailedDueToNoSCI
attr title "Number of tb not decoded due to no SCI, vector"
vector 181 Highway.car[1].lteNic.phy tbFailedDueToProp:vector ETV
attr source tbFailedDueToProp
attr title "Number of failed TBs due to propogation, vector"
vector 182 Highway.car[1].lteNic.phy tbFailedDueToInterference:vector ETV
attr source tbFailedDueToInterference
attr title "Number of failed TBs due to interference, vector"
vector 183 Highway.car[1].lteNic.phy tbFailedButSCIReceived:vector ETV
attr source tbFailedButSCIReceived
attr title "Number of failed TBs with a decoded SCI, vector"
vector 184 Highway.car[1].lteNic.phy tbFailedHalfDuplex:vector ETV
attr source tbFailedHalfDuplex
attr title "Number of failed TBs due to Half Duplex, vector"
vector 185 Highway.car[1].lteNic.phy periodic:vector ETV
attr source periodic
attr title "Identifies traffic as periodic or aperiodic, vector"
vector 186 Highway.car[1].lteNic.phy tbFailedDueToPropIgnoreSCI:vector ETV
attr source tbFailedDueToPropIgnoreSCI
attr title "Number of failed TBs due to propogation, vector"
vector 187 Highway.car[1].lteNic.phy tbFailedDueToInterferenceIgnoreSCI:vector ETV
attr source tbFailedDueToInterferenceIgnoreSCI
attr title "Number of failed TBs due to interference, vector"
vector 188 Highway.car[1].lteNic.phy tbDecodedIgnoreSCI:vector ETV
attr source tbDecodedIgnoreSCI
attr title "Number of failed TBs due to interference, vector"
vector 189 Highway.car[1].lteNic.mac receivedPacketFromLowerLayer:vector(packetBytes) ETV
attr interpolationmode none
attr source receivedPacketFromLowerLayer
vector 190 Highway.car[2].lteNic.phy txRxDistanceSCI:vector ETV
attr source txRxDistanceSCI
attr title "Distance between transmitter and receiver, vector"
vector 191 Highway.car[2].lteNic.phy senderID:vector ETV
attr source senderID
attr title "ID of node who sent message, vector"
vector 192 Highway.car[2].lteNic.phy sciReceived:vector ETV
attr source sciReceived
attr title "Number of received sci, vector"
vector 193 Highway.car[2].lteNic.phy sciUnsensed:vector ETV
attr source sciUnsensed
attr title "Number of failed SCIs due to RSRP below threshold, vector"
vector 194 Highway.car[2].lteNic.phy sciDecoded:vector ETV
attr source sciDecoded
attr title "Number of sci successfully decoded, vector"
vector 195 Highway.car[2].lteNic.phy sciFailedDueToProp:vector ETV
attr source sciFailedDueToProp
attr title "Number of failed SCIs due to propogation, vector"
vector 196 Highway.car[2].lteNic.phy sciFailedDueToInterference:vector ETV
attr source sciFailedDueToInterference
attr title "Number of failed SCIs due to interference, vector"
vector 197 Highway.car[2].lteNic.phy sciFailedHalfDuplex:vector ETV
attr source sciFailedHalfDuplex
attr title "Number of failed SCIs due to Half Duplex, vector"
vector 198 Highway.car[2].lteNic.phy subchannelReceived:vector ETV
attr source subchannelReceived
attr title "Initial Subchannel on which packet is received, vector"
vector 199 Highway.car[2].lteNic.phy subchannelsUsed:vector ETV
attr source subchannelsUsed
attr title "Number of Subchannels used for the received packet, vector"
vector 200 Highway.car[2].lteNic.phy txRxDistanceTB:vector ETV
attr source txRxDistanceTB
attr title "Distance between transmitter and receiver, vector"
vector 201 Highway.car[2].lteNic.phy tbReceived:vector ETV
attr source tbReceived
attr title "Number of tb received, vector"
vector 202 Highway.car[2].lteNic.phy tbDecoded:vector ETV
attr source tbDecoded
attr title "Number of tb Decoded, vector"
vector 203 Highway.car[2].lteNic.phy tbFailedDueToNoSCI:vector ETV
attr source tbFailedDueToNoSCI
attr title "Number of tb not decoded due to no SCI, vector"
vector 204 Highway.car[2].lteNic.phy tbFailedDueToProp:vector ETV
attr source tbFailedDueToProp
attr title "Number of failed TBs due to propogation, vector"
vector 205 Highway.car[2].lteNic.phy tbFailedDueToInterference:vector ETV
attr source tbFailedDueToInterference
attr title "Number of failed TBs due to interference, vector"
vector 206 Highway.car[2].lteNic.phy tbFailedButSCIReceived:vector ETV
attr source tbFailedButSCIReceived
attr title "Number of failed TBs with a decoded SCI, vector"
vector 207 Highway.car[2].lteNic.phy tbFailedHalfDuplex:vector ETV
attr source tbFailedHalfDuplex
attr title "Number of failed TBs due to Half Duplex, vector"
vector 208 Highway.car[2].lteNic.phy periodic:vector ETV
attr source periodic
attr title "Identifies traffic as periodic or aperiodic, vector"
vector 209 Highway.car[2].lteNic.phy tbFailedDueToPropIgnoreSCI:vector ETV
attr source tbFailedDueToPropIgnoreSCI
attr title "Number of failed TBs due to propogation, vector"
vector 210 Highway.car[2].lteNic.phy tbFailedDueToInterferenceIgnoreSCI:vector ETV
attr source tbFailedDueToInterferenceIgnoreSCI
attr title "Number of failed TBs due to interference, vector"
vector 211 Highway.car[2].lteNic.phy tbDecodedIgnoreSCI:vector ETV
attr source tbDecodedIgnoreSCI
attr title "Number of failed TBs due to interference, vector"
vector 212 Highway.car[2].lteNic.mac receivedPacketFromLowerLayer:vector(packetBytes) ETV
attr interpolationmode none
attr source receivedPacketFromLowerLayer
vector 213 Highway.car[3].lteNic.phy txRxDistanceSCI:vector ETV
attr source txRxDistanceSCI
attr title "Distance between transmitter and receiver, vector"
vector 214 Highway.car[3].lteNic.phy senderID:vector ETV
attr source senderID
attr title "ID of node who sent message, vector"
vector 215 Highway.car[3].lteNic.phy sciReceived:vector ETV
attr source sciReceived
attr title "Number of received sci, vector"
vector 216 Highway.car[3].lteNic.phy sciUnsensed:vector ETV
attr source sciUnsensed
attr title "Number of failed SCIs due to RSRP below threshold, vector"
vector 217 Highway.car[3].lteNic.phy sciDecoded:vector ETV
attr source sciDecoded
attr title "Number of sci successfully decoded, vector"
vector 218 Highway.car[3].lteNic.phy sciFailedDueToProp:vector ETV
attr source sciFailedDueToProp
attr title "Number of failed SCIs due to propogation, vector"
vector 219 Highway.car[3].lteNic.phy sciFailedDueToInterference:vector ETV
attr source sciFailedDueToInterference
attr title "Number of failed SCIs due to interference, vector"
vector 220 Highway.car[3].lteNic.phy sciFailedHalfDuplex:vector ETV
attr source sciFailedHalfDuplex
attr title "Number of failed SCIs due to Half Duplex, vector"
vector 221 Highway.car[3].lteNic.phy subchannelReceived:vector ETV
attr source subchannelReceived
attr title "Initial Subchannel on which packet is received, vector"
vector 222 Highway.car[3].lteNic.phy subchannelsUsed:vector ETV
attr source subchannelsUsed
attr title "Number of Subchannels used for the received packet, vector"
vector 223 Highway.car[3].lteNic.phy txRxDistanceTB:vector ETV
attr source txRxDistanceTB
attr title "Distance between transmitter and receiver, vector"
vector 224 Highway.car[3].lteNic.phy tbReceived:vector ETV
attr source tbReceived
attr title "Number of tb received, vector"
vector 225 Highway.car[3].lteNic.phy tbDecoded:vector ETV
attr source tbDecoded
attr title "Number of tb Decoded, vector"
vector 226 Highway.car[3].lteNic.phy tbFailedDueToNoSCI:vector ETV
attr source tbFailedDueToNoSCI
attr title "Number of tb not decoded due to no SCI, vector"
vector 227 Highway.car[3].lteNic.phy tbFailedDueToProp:vector ETV
attr source tbFailedDueToProp
attr title "Number of failed TBs due to propogation, vector"
vector 228 Highway.car[3].lteNic.phy tbFailedDueToInterference:vector ETV
attr source tbFailedDueToInterference
attr title "Number of failed TBs due to interference, vector"
vector 229 Highway.car[3].lteNic.phy tbFailedButSCIReceived:vector ETV
attr source tbFailedButSCIReceived
attr title "Number of failed TBs with a decoded SCI, vector"
vector 230 Highway.car[3].lteNic.phy tbFailedHalfDuplex:vector ETV
attr source tbFailedHalfDuplex
attr title "Number of failed TBs due to Half Duplex, vector"
vector 231 Highway.car[3].lteNic.phy periodic:vector ETV
attr source periodic
attr title "Identifies traffic as periodic or aperiodic, vector"
vector 232 Highway.car[3].lteNic.phy tbFailedDueToPropIgnoreSCI:vector ETV
attr source tbFailedDueToPropIgnoreSCI
attr title "Number of failed TBs due to propogation, vector"
vector 233 Highway.car[3].lteNic.phy tbFailedDueToInterferenceIgnoreSCI:vector ETV
attr source tbFailedDueToInterferenceIgnoreSCI
attr title "Number of failed TBs due to interference, vector"
vector 234 Highway.car[3].lteNic.phy tbDecodedIgnoreSCI:vector ETV
attr source tbDecodedIgnoreSCI
attr title "Number of failed TBs due to interference, vector"
vector 235 Highway.car[3].lteNic.mac receivedPacketFromLowerLayer:vector(packetBytes) ETV
attr interpolationmode none
attr source receivedPacketFromLowerLayer
vector 236 Highway.car[4].lteNic.phy txRxDistanceSCI:vector ETV
attr source txRxDistanceSCI
attr title "Distance between transmitter and receiver, vector"
vector 237 Highway.car[4].lteNic.phy senderID:vector ETV
attr source senderID
attr title "ID of node who sent message, vector"
vector 238 Highway.car[4].lteNic.phy sciReceived:vector ETV
attr source sciReceived
attr title "Number of received sci, vector"
vector 239 Highway.car[4].lteNic.phy sciUnsensed:vector ETV
attr source sciUnsensed
attr title "Number of failed SCIs due to RSRP below threshold, vector"
vector 240 Highway.car[4].lteNic.phy sciDecoded:vector ETV
attr source sciDecoded
attr title "Number of sci successfully decoded, vector"
vector 241 Highway.car[4].lteNic.phy sciFailedDueToProp:vector ETV
attr source sciFailedDueToProp
attr title "Number of failed SCIs due to propogation, vector"
vector 242 Highway.car[4].lteNic.phy sciFailedDueToInterference:vector ETV
attr source sciFailedDueToInterference
attr title "Number of failed SCIs due to interference, vector"
vector 243 Highway.car[4].lteNic.phy sciFailedHalfDuplex:vector ETV
attr source sciFailedHalfDuplex
attr title "Number of failed SCIs due to Half Duplex, vector"
vector 244 Highway.car[4].lteNic.phy subchannelReceived:vector ETV
attr source subchannelReceived
attr title "Initial Subchannel on which packet is received, vector"
vector 245 Highway.car[4].lteNic.phy subchannelsUsed:vector ETV
attr source subchannelsUsed
attr title "Number of Subchannels used for the received packet, vector"
vector 246 Highway.car[4].lteNic.phy txRxDistanceTB:vector ETV
attr source txRxDistanceTB
attr title "Distance between transmitter and receiver, vector"
vector 247 Highway.car[4].lteNic.phy tbReceived:vector ETV
attr source tbReceived
attr title "Number of tb received, vector"
vector 248 Highway.car[4].lteNic.phy tbDecoded:vector ETV
attr source tbDecoded
attr title "Number of tb Decoded, vector"
vector 249 Highway.car[4].lteNic.phy tbFailedDueToNoSCI:vector ETV
attr source tbFailedDueToNoSCI
attr title "Number of tb not decoded due to no SCI, vector"
vector 250 Highway.car[4].lteNic.phy tbFailedDueToProp:vector ETV
attr source tbFailedDueToProp
attr title "Number of failed TBs due to propogation, vector"
vector 251 Highway.car[4].lteNic.phy tbFailedDueToInterference:vector ETV
attr source tbFailedDueToInterference
attr title "Number of failed TBs due to interference, vector"
vector 252 Highway.car[4].lteNic.phy tbFailedButSCIReceived:vector ETV
attr source tbFailedButSCIReceived
attr title "Number of failed TBs with a decoded SCI, vector"
vector 253 Highway.car[4].lteNic.phy tbFailedHalfDuplex:vector ETV
attr source tbFailedHalfDuplex
attr title "Number of failed TBs due to Half Duplex, vector"
vector 254 Highway.car[4].lteNic.phy periodic:vector ETV
attr source periodic
attr title "Identifies traffic as periodic or aperiodic, vector"
vector 255 Highway.car[4].lteNic.phy tbFailedDueToPropIgnoreSCI:vector ETV
attr source tbFailedDueToPropIgnoreSCI
attr title "Number of failed TBs due to propogation, vector"
vector 256 Highway.car[4].lteNic.phy tbFailedDueToInterferenceIgnoreSCI:vector ETV
attr source tbFailedDueToInterferenceIgnoreSCI
attr title "Number of failed TBs due to interference, vector"
vector 257 Highway.car[4].lteNic.phy tbDecodedIgnoreSCI:vector ETV
attr source tbDecodedIgnoreSCI
attr title "Number of failed TBs due to interference, vector"
vector 258 Highway.car[4].lteNic.mac receivedPacketFromLowerLayer:vector(packetBytes) ETV
attr interpolationmode none
attr source receivedPacketFromLowerLayer
vector 259 Highway.car[5].lteNic.phy txRxDistanceSCI:vector ETV
attr source txRxDistanceSCI
attr title "Distance between transmitter and receiver, vector"
vector 260 Highway.car[5].lteNic.phy senderID:vector ETV
attr source senderID
attr title "ID of node who sent message, vector"
vector 261 Highway.car[5].lteNic.phy sciReceived:vector ETV
attr source sciReceived
attr title "Number of received sci, vector"
vector 262 Highway.car[5].lteNic.phy sciUnsensed:vector ETV
attr source sciUnsensed
attr title "Number of failed SCIs due to RSRP below threshold, vector"
vector 263 Highway.car[5].lteNic.phy sciDecoded:vector ETV
attr source sciDecoded
attr title "Number of sci successfully decoded, vector"
vector 264 Highway.car[5].lteNic.phy sciFailedDueToProp:vector ETV
attr source sciFailedDueToProp
attr title "Number of failed SCIs due to propogation, vector"
vector 265 Highway.car[5].lteNic.phy sciFailedDueToInterference:vector ETV
attr source sciFailedDueToInterference
attr title "Number of failed SCIs due to interference, vector"
vector 266 Highway.car[5].lteNic.phy sciFailedHalfDuplex:vector ETV
attr source sciFailedHalfDuplex
attr title "Number of failed SCIs due to Half Duplex, vector"
vector 267 Highway.car[5].lteNic.phy subchannelReceived:vector ETV
attr source subchannelReceived
attr title "Initial Subchannel on which packet is received, vector"
vector 268 Highway.car[5].lteNic.phy subchannelsUsed:vector ETV
attr source subchannelsUsed
attr title "Number of Subchannels used for the received packet, vector"
vector 269 Highway.car[5].lteNic.phy txRxDistanceTB:vector ETV
attr source txRxDistanceTB
attr title "Distance between transmitter and receiver, vector"
vector 270 Highway.car[5].lteNic.phy tbReceived:vector ETV
attr source tbReceived
attr title "Number of tb received, vector"
vector 271 Highway.car[5].lteNic.phy tbDecoded:vector ETV
attr source tbDecoded
attr title "Number of tb Decoded, vector"
vector 272 Highway.car[5].lteNic.phy tbFailedDueToNoSCI:vector ETV
attr source tbFailedDueToNoSCI
attr title "Number of tb not decoded due to no SCI, vector"
vector 273 Highway.car[5].lteNic.phy tbFailedDueToProp:vector ETV
attr source tbFailedDueToProp
attr title "Number of failed TBs due to propogation, vector"
vector 274 Highway.car[5].lteNic.phy tbFailedDueToInterference:vector ETV
attr source tbFailedDueToInterference
attr title "Number of failed TBs due to interference, vector"
vector 275 Highway.car[5].lteNic.phy tbFailedButSCIReceived:vector ETV
attr source tbFailedButSCIReceived
attr title "Number of failed TBs with a decoded SCI, vector"
vector 276 Highway.car[5].lteNic.phy tbFailedHalfDuplex:vector ETV
attr source tbFailedHalfDuplex
attr title "Number of failed TBs due to Half Duplex, vector"
vector 277 Highway.car[5].lteNic.phy periodic:vector ETV
attr source periodic
attr title "Identifies traffic as periodic or aperiodic, vector"
vector 278 Highway.car[5].lteNic.phy tbFailedDueToPropIgnoreSCI:vector ETV
attr source tbFailedDueToPropIgnoreSCI
attr title "Number of failed TBs due to propogation, vector"
vector 279 Highway.car[5].lteNic.phy tbFailedDueToInterferenceIgnoreSCI:vector ETV
attr source tbFailedDueToInterferenceIgnoreSCI
attr title "Number of failed TBs due to interference, vector"
vector 280 Highway.car[5].lteNic.phy tbDecodedIgnoreSCI:vector ETV
attr source tbDecodedIgnoreSCI
attr title "Number of failed TBs due to interference, vector"
vector 281 Highway.car[5].lteNic.mac receivedPacketFromLowerLayer:vector(packetBytes) ETV
attr interpolationmode none
attr source receivedPacketFromLowerLayer
vector 282 Highway.car[6].lteNic.phy txRxDistanceSCI:vector ETV
attr source txRxDistanceSCI
attr title "Distance between transmitter and receiver, vector"
vector 283 Highway.car[6].lteNic.phy senderID:vector ETV
attr source senderID
attr title "ID of node who sent message, vector"
vector 284 Highway.car[6].lteNic.phy sciReceived:vector ETV
attr source sciReceived
attr title "Number of received sci, vector"
vector 285 Highway.car[6].lteNic.phy sciUnsensed:vector ETV
attr source sciUnsensed
attr title "Number of failed SCIs due to RSRP below threshold, vector"
vector 286 Highway.car[6].lteNic.phy sciDecoded:vector ETV
attr source sciDecoded
attr title "Number of sci successfully decoded, vector"
vector 287 Highway.car[6].lteNic.phy sciFailedDueToProp:vector ETV
attr source sciFailedDueToProp
attr title "Number of failed SCIs due to propogation, vector"
vector 288 Highway.car[6].lteNic.phy sciFailedDueToInterference:vector ETV
attr source sciFailedDueToInterference
attr title "Number of failed SCIs due to interference, vector"
vector 289 Highway.car[6].lteNic.phy sciFailedHalfDuplex:vector ETV
attr source sciFailedHalfDuplex
attr title "Number of failed SCIs due to Half Duplex, vector"
vector 290 Highway.car[6].lteNic.phy subchannelReceived:vector ETV
attr source subchannelReceived
attr title "Initial Subchannel on which packet is received, vector"
vector 291 Highway.car[6].lteNic.phy subchannelsUsed:vector ETV
attr source subchannelsUsed
attr title "Number of Subchannels used for the received packet, vector"
vector 292 Highway.car[6].lteNic.phy txRxDistanceTB:vector ETV
attr source txRxDistanceTB
attr title "Distance between transmitter and receiver, vector"
vector 293 Highway.car[6].lteNic.phy tbReceived:vector ETV
attr source tbReceived
attr title "Number of tb received, vector"
vector 294 Highway.car[6].lteNic.phy tbDecoded:vector ETV
attr source tbDecoded
attr title "Number of tb Decoded, vector"
vector 295 Highway.car[6].lteNic.phy tbFailedDueToNoSCI:vector ETV
attr source tbFailedDueToNoSCI
attr title "Number of tb not decoded due to no SCI, vector"
vector 296 Highway.car[6].lteNic.phy tbFailedDueToProp:vector ETV
attr source tbFailedDueToProp
attr title "Number of failed TBs due to propogation, vector"
vector 297 Highway.car[6].lteNic.phy tbFailedDueToInterference:vector ETV
attr source tbFailedDueToInterference
attr title "Number of failed TBs due to interference, vector"
vector 298 Highway.car[6].lteNic.phy tbFailedButSCIReceived:vector ETV
attr source tbFailedButSCIReceived
attr title "Number of failed TBs with a decoded SCI, vector"
vector 299 Highway.car[6].lteNic.phy tbFailedHalfDuplex:vector ETV
attr source tbFailedHalfDuplex
attr title "Number of failed TBs due to Half Duplex, vector"
vector 300 Highway.car[6].lteNic.phy periodic:vector ETV
attr source periodic
attr title "Identifies traffic as periodic or aperiodic, vector"
vector 301 Highway.car[6].lteNic.phy tbFailedDueToPropIgnoreSCI:vector ETV
attr source tbFailedDueToPropIgnoreSCI
attr title "Number of failed TBs due to propogation, vector"
vector 302 Highway.car[6].lteNic.phy tbFailedDueToInterferenceIgnoreSCI:vector ETV
attr source tbFailedDueToInterferenceIgnoreSCI
attr title "Number of failed TBs due to interference, vector"
vector 303 Highway.car[6].lteNic.phy tbDecodedIgnoreSCI:vector ETV
attr source tbDecodedIgnoreSCI
attr title "Number of failed TBs due to interference, vector"
vector 304 Highway.car[6].lteNic.mac receivedPacketFromLowerLayer:vector(packetBytes) ETV
attr interpolationmode none
attr source receivedPacketFromLowerLayer
vector 305 Highway.car[7].lteNic.phy txRxDistanceSCI:vector ETV
attr source txRxDistanceSCI
attr title "Distance between transmitter and receiver, vector"
vector 306 Highway.car[7].lteNic.phy senderID:vector ETV
attr source senderID
attr title "ID of node who sent message, vector"
vector 307 Highway.car[7].lteNic.phy sciReceived:vector ETV
attr source sciReceived
attr title "Number of received sci, vector"
vector 308 Highway.car[7].lteNic.phy sciUnsensed:vector ETV
attr source sciUnsensed
attr title "Number of failed SCIs due to RSRP below threshold, vector"
vector 309 Highway.car[7].lteNic.phy sciDecoded:vector ETV
attr source sciDecoded
attr title "Number of sci successfully decoded, vector"
vector 310 Highway.car[7].lteNic.phy sciFailedDueToProp:vector ETV
attr source sciFailedDueToProp
attr title "Number of failed SCIs due to propogation, vector"
vector 311 Highway.car[7].lteNic.phy sciFailedDueToInterference:vector ETV
attr source sciFailedDueToInterference
attr title "Number of failed SCIs due to interference, vector"
vector 312 Highway.car[7].lteNic.phy sciFailedHalfDuplex:vector ETV
attr source sciFailedHalfDuplex
attr title "Number of failed SCIs due to Half Duplex, vector"
vector 313 Highway.car[7].lteNic.phy subchannelReceived:vector ETV
attr source subchannelReceived
attr title "Initial Subchannel on which packet is received, vector"
vector 314 Highway.car[7].lteNic.phy subchannelsUsed:vector ETV
attr source subchannelsUsed
attr title "Number of Subchannels used for the received packet, vector"
vector 315 Highway.car[7].lteNic.phy txRxDistanceTB:vector ETV
attr source txRxDistanceTB
attr title "Distance between transmitter and receiver, vector"
vector 316 Highway.car[7].lteNic.phy tbReceived:vector ETV
attr source tbReceived
attr title "Number of tb received, vector"
vector 317 Highway.car[7].lteNic.phy tbDecoded:vector ETV
attr source tbDecoded
attr title "Number of tb Decoded, vector"
vector 318 Highway.car[7].lteNic.phy tbFailedDueToNoSCI:vector ETV
attr source tbFailedDueToNoSCI
attr title "Number of tb not decoded due to no SCI, vector"
vector 319 Highway.car[7].lteNic.phy tbFailedDueToProp:vector ETV
attr source tbFailedDueToProp
attr title "Number of failed TBs due to propogation, vector"
vector 320 Highway.car[7].lteNic.phy tbFailedDueToInterference:vector ETV
attr source tbFailedDueToInterference
attr title "Number of failed TBs due to interference, vector"
vector 321 Highway.car[7].lteNic.phy tbFailedButSCIReceived:vector ETV
attr source tbFailedButSCIReceived
attr title "Number of failed TBs with a decoded SCI, vector"
vector 322 Highway.car[7].lteNic.phy tbFailedHalfDuplex:vector ETV
attr source tbFailedHalfDuplex
attr title "Number of failed TBs due to Half Duplex, vector"
vector 323 Highway.car[7].lteNic.phy periodic:vector ETV
attr source periodic
attr title "Identifies traffic as periodic or aperiodic, vector"
vector 324 Highway.car[7].lteNic.phy tbFailedDueToPropIgnoreSCI:vector ETV
attr source tbFailedDueToPropIgnoreSCI
attr title "Number of failed TBs due to propogation, vector"
vector 325 Highway.car[7].lteNic.phy tbFailedDueToInterferenceIgnoreSCI:vector ETV
attr source tbFailedDueToInterferenceIgnoreSCI
attr title "Number of failed TBs due to interference, vector"
vector 326 Highway.car[7].lteNic.phy tbDecodedIgnoreSCI:vector ETV
attr source tbDecodedIgnoreSCI
attr title "Number of failed TBs due to interference, vector"
vector 327 Highway.car[7].lteNic.mac receivedPacketFromLowerLayer:vector(packetBytes) ETV
attr interpolationmode none
attr source receivedPacketFromLowerLayer
vector 328 Highway.car[8].lteNic.phy txRxDistanceSCI:vector ETV
attr source txRxDistanceSCI
attr title "Distance between transmitter and receiver, vector"
vector 329 Highway.car[8].lteNic.phy senderID:vector ETV
attr source senderID
attr title "ID of node who sent message, vector"
vector 330 Highway.car[8].lteNic.phy sciReceived:vector ETV
attr source sciReceived
attr title "Number of received sci, vector"
vector 331 Highway.car[8].lteNic.phy sciUnsensed:vector ETV
attr source sciUnsensed
attr title "Number of failed SCIs due to RSRP below threshold, vector"
vector 332 Highway.car[8].lteNic.phy sciDecoded:vector ETV
attr source sciDecoded
attr title "Number of sci successfully decoded, vector"
vector 333 Highway.car[8].lteNic.phy sciFailedDueToProp:vector ETV
attr source sciFailedDueToProp
attr title "Number of failed SCIs due to propogation, vector"
vector 334 Highway.car[8].lteNic.phy sciFailedDueToInterference:vector ETV
attr source sciFailedDueToInterference
attr title "Number of failed SCIs due to interference, vector"
vector 335 Highway.car[8].lteNic.phy sciFailedHalfDuplex:vector ETV
attr source sciFailedHalfDuplex
attr title "Number of failed SCIs due to Half Duplex, vector"
vector 336 Highway.car[8].lteNic.phy subchannelReceived:vector ETV
attr source subchannelReceived
attr title "Initial Subchannel on which packet is received, vector"
vector 337 Highway.car[8].lteNic.phy subchannelsUsed:vector ETV
attr source subchannelsUsed
attr title "Number of Subchannels used for the received packet, vector"
vector 338 Highway.car[8].lteNic.phy txRxDistanceTB:vector ETV
attr source txRxDistanceTB
attr title "Distance between transmitter and receiver, vector"
vector 339 Highway.car[8].lteNic.phy tbReceived:vector ETV
attr source tbReceived
attr title "Number of tb received, vector"
vector 340 Highway.car[8].lteNic.phy tbDecoded:vector ETV
attr source tbDecoded
attr title "Number of tb Decoded, vector"
vector 341 Highway.car[8].lteNic.phy tbFailedDueToNoSCI:vector ETV
attr source tbFailedDueToNoSCI
attr title "Number of tb not decoded due to no SCI, vector"
vector 342 Highway.car[8].lteNic.phy tbFailedDueToProp:vector ETV
attr source tbFailedDueToProp
attr title "Number of failed TBs due to propogation, vector"
vector 343 Highway.car[8].lteNic.phy tbFailedDueToInterference:vector ETV
attr source tbFailedDueToInterference
attr title "Number of failed TBs due to interference, vector"
vector 344 Highway.car[8].lteNic.phy tbFailedButSCIReceived:vector ETV
attr source tbFailedButSCIReceived
attr title "Number of failed TBs with a decoded SCI, vector"
vector 345 Highway.car[8].lteNic.phy tbFailedHalfDuplex:vector ETV
attr source tbFailedHalfDuplex
attr title "Number of failed TBs due to Half Duplex, vector"
vector 346 Highway.car[8].lteNic.phy periodic:vector ETV
attr source periodic
attr title "Identifies traffic as periodic or aperiodic, vector"
vector 347 Highway.car[8].lteNic.phy tbFailedDueToPropIgnoreSCI:vector ETV
attr source tbFailedDueToPropIgnoreSCI
attr title "Number of failed TBs due to propogation, vector"
vector 348 Highway.car[8].lteNic.phy tbFailedDueToInterferenceIgnoreSCI:vector ETV
attr source tbFailedDueToInterferenceIgnoreSCI
attr title "Number of failed TBs due to interference, vector"
vector 349 Highway.car[8].lteNic.phy tbDecodedIgnoreSCI:vector ETV
attr source tbDecodedIgnoreSCI
attr title "Number of failed TBs due to interference, vector"
vector 350 Highway.car[8].lteNic.mac receivedPacketFromLowerLayer:vector(packetBytes) ETV
attr interpolationmode none
attr source receivedPacketFromLowerLayer
vector 351 Highway.car[9].lteNic.phy txRxDistanceSCI:vector ETV
attr source txRxDistanceSCI
attr title "Distance between transmitter and receiver, vector"
vector 352 Highway.car[9].lteNic.phy senderID:vector ETV
attr source senderID
attr title "ID of node who sent message, vector"
vector 353 Highway.car[9].lteNic.phy sciReceived:vector ETV
attr source sciReceived
attr title "Number of received sci, vector"
vector 354 Highway.car[9].lteNic.phy sciUnsensed:vector ETV
attr source sciUnsensed
attr title "Number of failed SCIs due to RSRP below threshold, vector"
vector 355 Highway.car[9].lteNic.phy sciDecoded:vector ETV
attr source sciDecoded
attr title "Number of sci successfully decoded, vector"
vector 356 Highway.car[9].lteNic.phy sciFailedDueToProp:vector ETV
attr source sciFailedDueToProp
attr title "Number of failed SCIs due to propogation, vector"
vector 357 Highway.car[9].lteNic.phy sciFailedDueToInterference:vector ETV
attr source sciFailedDueToInterference
attr title "Number of failed SCIs due to interference, vector"
vector 358 Highway.car[9].lteNic.phy sciFailedHalfDuplex:vector ETV
attr source sciFailedHalfDuplex
attr title "Number of failed SCIs due to Half Duplex, vector"
vector 359 Highway.car[9].lteNic.phy subchannelReceived:vector ETV
attr source subchannelReceived
attr title "Initial Subchannel on which packet is received, vector"
vector 360 Highway.car[9].lteNic.phy subchannelsUsed:vector ETV
attr source subchannelsUsed
attr title "Number of Subchannels used for the received packet, vector"
vector 361 Highway.car[9].lteNic.phy txRxDistanceTB:vector ETV
attr source txRxDistanceTB
attr title "Distance between transmitter and receiver, vector"
vector 362 Highway.car[9].lteNic.phy tbReceived:vector ETV
attr source tbReceived
attr title "Number of tb received, vector"
vector 363 Highway.car[9].lteNic.phy tbDecoded:vector ETV
attr source tbDecoded
attr title "Number of tb Decoded, vector"
vector 364 Highway.car[9].lteNic.phy tbFailedDueToNoSCI:vector ETV
attr source tbFailedDueToNoSCI
attr title "Number of tb not decoded due to no SCI, vector"
vector 365 Highway.car[9].lteNic.phy tbFailedDueToProp:vector ETV
attr source tbFailedDueToProp
attr title "Number of failed TBs due to propogation, vector"
vector 366 Highway.car[9].lteNic.phy tbFailedDueToInterference:vector ETV
attr source tbFailedDueToInterference
attr title "Number of failed TBs due to interference, vector"
vector 367 Highway.car[9].lteNic.phy tbFailedButSCIReceived:vector ETV
attr source tbFailedButSCIReceived
attr title "Number of failed TBs with a decoded SCI, vector"
vector 368 Highway.car[9].lteNic.phy tbFailedHalfDuplex:vector ETV
attr source tbFailedHalfDuplex
attr title "Number of failed TBs due to Half Duplex, vector"
vector 369 Highway.car[9].lteNic.phy periodic:vector ETV
attr source periodic
attr title "Identifies traffic as periodic or aperiodic, vector"
vector 370 Highway.car[9].lteNic.phy tbFailedDueToPropIgnoreSCI:vector ETV
attr source tbFailedDueToPropIgnoreSCI
attr title "Number of failed TBs due to propogation, vector"
vector 371 Highway.car[9].lteNic.phy tbFailedDueToInterferenceIgnoreSCI:vector ETV
attr source tbFailedDueToInterferenceIgnoreSCI
attr title "Number of failed TBs due to interference, vector"
vector 372 Highway.car[9].lteNic.phy tbDecodedIgnoreSCI:vector ETV
attr source tbDecodedIgnoreSCI
attr title "Number of failed TBs due to interference, vector"
vector 373 Highway.car[9].lteNic.mac receivedPacketFromLowerLayer:vector(packetBytes) ETV
attr interpolationmode none
attr source receivedPacketFromLowerLayer
vector 374 Highway.car[10].lteNic.phy txRxDistanceSCI:vector ETV
attr source txRxDistanceSCI
attr title "Distance between transmitter and receiver, vector"
vector 375 Highway.car[10].lteNic.phy senderID:vector ETV
attr source senderID
attr title "ID of node who sent message, vector"
vector 376 Highway.car[10].lteNic.phy sciReceived:vector ETV
attr source sciReceived
attr title "Number of received sci, vector"
vector 377 Highway.car[10].lteNic.phy sciUnsensed:vector ETV
attr source sciUnsensed
attr title "Number of failed SCIs due to RSRP below threshold, vector"
vector 378 Highway.car[10].lteNic.phy sciDecoded:vector ETV
attr source sciDecoded
attr title "Number of sci successfully decoded, vector"
vector 379 Highway.car[10].lteNic.phy sciFailedDueToProp:vector ETV
attr source sciFailedDueToProp
attr title "Number of failed SCIs due to propogation, vector"
vector 380 Highway.car[10].lteNic.phy sciFailedDueToInterference:vector ETV
attr source sciFailedDueToInterference
attr title "Number of failed SCIs due to interference, vector"
vector 381 Highway.car[10].lteNic.phy sciFailedHalfDuplex:vector ETV
attr source sciFailedHalfDuplex
attr title "Number of failed SCIs due to Half Duplex, vector"
vector 382 Highway.car[10].lteNic.phy subchannelReceived:vector ETV
attr source subchannelReceived
attr title "Initial Subchannel on which packet is received, vector"
vector 383 Highway.car[10].lteNic.phy subchannelsUsed:vector ETV
attr source subchannelsUsed
attr title "Number of Subchannels used for the received packet, vector"
vector 384 Highway.car[10].lteNic.phy txRxDistanceTB:vector ETV
attr source txRxDistanceTB
attr title "Distance between transmitter and receiver, vector"
vector 385 Highway.car[10].lteNic.phy tbReceived:vector ETV
attr source tbReceived
attr title "Number of tb received, vector"
vector 386 Highway.car[10].lteNic.phy tbDecoded:vector ETV
attr source tbDecoded
attr title "Number of tb Decoded, vector"
vector 387 Highway.car[10].lteNic.phy tbFailedDueToNoSCI:vector ETV
attr source tbFailedDueToNoSCI
attr title "Number of tb not decoded due to no SCI, vector"
vector 388 Highway.car[10].lteNic.phy tbFailedDueToProp:vector ETV
attr source tbFailedDueToProp
attr title "Number of failed TBs due to propogation, vector"
vector 389 Highway.car[10].lteNic.phy tbFailedDueToInterference:vector ETV
attr source tbFailedDueToInterference
attr title "Number of failed TBs due to interference, vector"
vector 390 Highway.car[10].lteNic.phy tbFailedButSCIReceived:vector ETV
attr source tbFailedButSCIReceived
attr title "Number of failed TBs with a decoded SCI, vector"
vector 391 Highway.car[10].lteNic.phy tbFailedHalfDuplex:vector ETV
attr source tbFailedHalfDuplex
attr title "Number of failed TBs due to Half Duplex, vector"
vector 392 Highway.car[10].lteNic.phy periodic:vector ETV
attr source periodic
attr title "Identifies traffic as periodic or aperiodic, vector"
vector 393 Highway.car[10].lteNic.phy tbFailedDueToPropIgnoreSCI:vector ETV
attr source tbFailedDueToPropIgnoreSCI
attr title "Number of failed TBs due to propogation, vector"
vector 394 Highway.car[10].lteNic.phy tbFailedDueToInterferenceIgnoreSCI:vector ETV
attr source tbFailedDueToInterferenceIgnoreSCI
attr title "Number of failed TBs due to interference, vector"
vector 395 Highway.car[10].lteNic.phy tbDecodedIgnoreSCI:vector ETV
attr source tbDecodedIgnoreSCI
attr title "Number of failed TBs due to interference, vector"
vector 396 Highway.car[10].lteNic.mac receivedPacketFromLowerLayer:vector(packetBytes) ETV
attr interpolationmode none
attr source receivedPacketFromLowerLayer
vector 397 Highway.car[11].lteNic.phy txRxDistanceSCI:vector ETV
attr source txRxDistanceSCI
attr title "Distance between transmitter and receiver, vector"
vector 398 Highway.car[11].lteNic.phy senderID:vector ETV
attr source senderID
attr title "ID of node who sent message, vector"
vector 399 Highway.car[11].lteNic.phy sciReceived:vector ETV
attr source sciReceived
attr title "Number of received sci, vector"
vector 400 Highway.car[11].lteNic.phy sciUnsensed:vector ETV
attr source sciUnsensed
attr title "Number of failed SCIs due to RSRP below threshold, vector"
vector 401 Highway.car[11].lteNic.phy sciDecoded:vector ETV
attr source sciDecoded
attr title "Number of sci successfully decoded, vector"
vector 402 Highway.car[11].lteNic.phy sciFailedDueToProp:vector ETV
attr source sciFailedDueToProp
attr title "Number of failed SCIs due to propogation, vector"
vector 403 Highway.car[11].lteNic.phy sciFailedDueToInterference:vector ETV
attr source sciFailedDueToInterference
attr title "Number of failed SCIs due to interference, vector"
vector 404 Highway.car[11].lteNic.phy sciFailedHalfDuplex:vector ETV
attr source sciFailedHalfDuplex
attr title "Number of failed SCIs due to Half Duplex, vector"
vector 405 Highway.car[11].lteNic.phy subchannelReceived:vector ETV
attr source subchannelReceived
attr title "Initial Subchannel on which packet is received, vector"
vector 406 Highway.car[11].lteNic.phy subchannelsUsed:vector ETV
attr source subchannelsUsed
attr title "Number of Subchannels used for the received packet, vector"
vector 407 Highway.car[11].lteNic.phy txRxDistanceTB:vector ETV
attr source txRxDistanceTB
attr title "Distance between transmitter and receiver, vector"
vector 408 Highway.car[11].lteNic.phy tbReceived:vector ETV
attr source tbReceived
attr title "Number of tb received, vector"
vector 409 Highway.car[11].lteNic.phy tbDecoded:vector ETV
attr source tbDecoded
attr title "Number of tb Decoded, vector"
vector 410 Highway.car[11].lteNic.phy tbFailedDueToNoSCI:vector ETV
attr source tbFailedDueToNoSCI
attr title "Number of tb not decoded due to no SCI, vector"
vector 411 Highway.car[11].lteNic.phy tbFailedDueToProp:vector ETV
attr source tbFailedDueToProp
attr title "Number of failed TBs due to propogation, vector"
vector 412 Highway.car[11].lteNic.phy tbFailedDueToInterference:vector ETV
attr source tbFailedDueToInterference
attr title "Number of failed TBs due to interference, vector"
vector 413 Highway.car[11].lteNic.phy tbFailedButSCIReceived:vector ETV
attr source tbFailedButSCIReceived
attr title "Number of failed TBs with a decoded SCI, vector"
vector 414 Highway.car[11].lteNic.phy tbFailedHalfDuplex:vector ETV
attr source tbFailedHalfDuplex
attr title "Number of failed TBs due to Half Duplex, vector"
vector 415 Highway.car[11].lteNic.phy periodic:vector ETV
attr source periodic
attr title "Identifies traffic as periodic or aperiodic, vector"
vector 416 Highway.car[11].lteNic.phy tbFailedDueToPropIgnoreSCI:vector ETV
attr source tbFailedDueToPropIgnoreSCI
attr title "Number of failed TBs due to propogation, vector"
vector 417 Highway.car[11].lteNic.phy tbFailedDueToInterferenceIgnoreSCI:vector ETV
attr source tbFailedDueToInterferenceIgnoreSCI
attr title "Number of failed TBs due to interference, vector"
vector 418 Highway.car[11].lteNic.phy tbDecodedIgnoreSCI:vector ETV
attr source tbDecodedIgnoreSCI
attr title "Number of failed TBs due to interference, vector"
vector 419 Highway.car[11].lteNic.mac receivedPacketFromLowerLayer:vector(packetBytes) ETV
attr interpolationmode none
attr source receivedPacketFromLowerLayer
vector 420 Highway.car[12].lteNic.phy txRxDistanceSCI:vector ETV
attr source txRxDistanceSCI
attr title "Distance between transmitter and receiver, vector"
vector 421 Highway.car[12].lteNic.phy senderID:vector ETV
attr source senderID
attr title "ID of node who sent message, vector"
vector 422 Highway.car[12].lteNic.phy sciReceived:vector ETV
attr source sciReceived
attr title "Number of received sci, vector"
vector 423 Highway.car[12].lteNic.phy sciUnsensed:vector ETV
attr source sciUnsensed
attr title "Number of failed SCIs due to RSRP below threshold, vector"
vector 424 Highway.car[12].lteNic.phy sciDecoded:vector ETV
attr source sciDecoded
attr title "Number of sci successfully decoded, vector"
vector 425 Highway.car[12].lteNic.phy sciFailedDueToProp:vector ETV
attr source sciFailedDueToProp
attr title "Number of failed SCIs due to propogation, vector"
vector 426 Highway.car[12].lteNic.phy sciFailedDueToInterference:vector ETV
attr source sciFailedDueToInterference
attr title "Number of failed SCIs due to interference, vector"
vector 427 Highway.car[12].lteNic.phy sciFailedHalfDuplex:vector ETV
attr source sciFailedHalfDuplex
attr title "Number of failed SCIs due to Half Duplex, vector"
vector 428 Highway.car[12].lteNic.phy subchannelReceived:vector ETV
attr source subchannelReceived
attr title "Initial Subchannel on which packet is received, vector"
vector 429 Highway.car[12].lteNic.phy subchannelsUsed:vector ETV
attr source subchannelsUsed
attr title "Number of Subchannels used for the received packet, vector"
vector 430 Highway.car[12].lteNic.phy txRxDistanceTB:vector ETV
attr source txRxDistanceTB
attr title "Distance between transmitter and receiver, vector"
vector 431 Highway.car[12].lteNic.phy tbReceived:vector ETV
attr source tbReceived
attr title "Number of tb received, vector"
vector 432 Highway.car[12].lteNic.phy tbDecoded:vector ETV
attr source tbDecoded
attr title "Number of tb Decoded, vector"
vector 433 Highway.car[12].lteNic.phy tbFailedDueToNoSCI:vector ETV
attr source tbFailedDueToNoSCI
attr title "Number of tb not decoded due to no SCI, vector"
vector 434 Highway.car[12].lteNic.phy tbFailedDueToProp:vector ETV
attr source tbFailedDueToProp
attr title "Number of failed TBs due to propogation, vector"
vector 435 Highway.car[12].lteNic.phy tbFailedDueToInterference:vector ETV
attr source tbFailedDueToInterference
attr title "Number of failed TBs due to interference, vector"
vector 436 Highway.car[12].lteNic.phy tbFailedButSCIReceived:vector ETV
attr source tbFailedButSCIReceived
attr title "Number of failed TBs with a decoded SCI, vector"
vector 437 Highway.car[12].lteNic.phy tbFailedHalfDuplex:vector ETV
attr source tbFailedHalfDuplex
attr title "Number of failed TBs due to Half Duplex, vector"
vector 438 Highway.car[12].lteNic.phy periodic:vector ETV
attr source periodic
attr title "Identifies traffic as periodic or aperiodic, vector"
vector 439 Highway.car[12].lteNic.phy tbFailedDueToPropIgnoreSCI:vector ETV
attr source tbFailedDueToPropIgnoreSCI
attr title "Number of failed TBs due to propogation, vector"
vector 440 Highway.car[12].lteNic.phy tbFailedDueToInterferenceIgnoreSCI:vector ETV
attr source tbFailedDueToInterferenceIgnoreSCI
attr title "Number of failed TBs due to interference, vector"
vector 441 Highway.car[12].lteNic.phy tbDecodedIgnoreSCI:vector ETV
attr source tbDecodedIgnoreSCI
attr title "Number of failed TBs due to interference, vector"
vector 442 Highway.car[12].lteNic.mac receivedPacketFromLowerLayer:vector(packetBytes) ETV
attr interpolationmode none
attr source receivedPacketFromLowerLayer
vector 443 Highway.car[13].lteNic.phy txRxDistanceSCI:vector ETV
attr source txRxDistanceSCI
attr title "Distance between transmitter and receiver, vector"
vector 444 Highway.car[13].lteNic.phy senderID:vector ETV
attr source senderID
attr title "ID of node who sent message, vector"
vector 445 Highway.car[13].lteNic.phy sciReceived:vector ETV
attr source sciReceived
attr title "Number of received sci, vector"
vector 446 Highway.car[13].lteNic.phy sciUnsensed:vector ETV
attr source sciUnsensed
attr title "Number of failed SCIs due to RSRP below threshold, vector"
vector 447 Highway.car[13].lteNic.phy sciDecoded:vector ETV
attr source sciDecoded
attr title "Number of sci successfully decoded, vector"
vector 448 Highway.car[13].lteNic.phy sciFailedDueToProp:vector ETV
attr source sciFailedDueToProp
attr title "Number of failed SCIs due to propogation, vector"
vector 449 Highway.car[13].lteNic.phy sciFailedDueToInterference:vector ETV
attr source sciFailedDueToInterference
attr title "Number of failed SCIs due to interference, vector"
vector 450 Highway.car[13].lteNic.phy sciFailedHalfDuplex:vector ETV
attr source sciFailedHalfDuplex
attr title "Number of failed SCIs due to Half Duplex, vector"
vector 451 Highway.car[13].lteNic.phy subchannelReceived:vector ETV
attr source subchannelReceived
attr title "Initial Subchannel on which packet is received, vector"
vector 452 Highway.car[13].lteNic.phy subchannelsUsed:vector ETV
attr source subchannelsUsed
attr title "Number of Subchannels used for the received packet, vector"
vector 453 Highway.car[13].lteNic.phy txRxDistanceTB:vector ETV
attr source txRxDistanceTB
attr title "Distance between transmitter and receiver, vector"
vector 454 Highway.car[13].lteNic.phy tbReceived:vector ETV
attr source tbReceived
attr title "Number of tb received, vector"
vector 455 Highway.car[13].lteNic.phy tbDecoded:vector ETV
attr source tbDecoded
attr title "Number of tb Decoded, vector"
vector 456 Highway.car[13].lteNic.phy tbFailedDueToNoSCI:vector ETV
attr source tbFailedDueToNoSCI
attr title "Number of tb not decoded due to no SCI, vector"
vector 457 Highway.car[13].lteNic.phy tbFailedDueToProp:vector ETV
attr source tbFailedDueToProp
attr title "Number of failed TBs due to propogation, vector"
vector 458 Highway.car[13].lteNic.phy tbFailedDueToInterference:vector ETV
attr source tbFailedDueToInterference
attr title "Number of failed TBs due to interference, vector"
vector 459 Highway.car[13].lteNic.phy tbFailedButSCIReceived:vector ETV
attr source tbFailedButSCIReceived
attr title "Number of failed TBs with a decoded SCI, vector"
vector 460 Highway.car[13].lteNic.phy tbFailedHalfDuplex:vector ETV
attr source tbFailedHalfDuplex
attr title "Number of failed TBs due to Half Duplex, vector"
vector 461 Highway.car[13].lteNic.phy periodic:vector ETV
attr source periodic
attr title "Identifies traffic as periodic or aperiodic, vector"
vector 462 Highway.car[13].lteNic.phy tbFailedDueToPropIgnoreSCI:vector ETV
attr source tbFailedDueToPropIgnoreSCI
attr title "Number of failed TBs due to propogation, vector"
vector 463 Highway.car[13].lteNic.phy tbFailedDueToInterferenceIgnoreSCI:vector ETV
attr source tbFailedDueToInterferenceIgnoreSCI
attr title "Number of failed TBs due to interference, vector"
vector 464 Highway.car[13].lteNic.phy tbDecodedIgnoreSCI:vector ETV
attr source tbDecodedIgnoreSCI
attr title "Number of failed TBs due to interference, vector"
vector 465 Highway.car[14].lteNic.phy txRxDistanceSCI:vector ETV
attr source txRxDistanceSCI
attr title "Distance between transmitter and receiver, vector"
vector 466 Highway.car[14].lteNic.phy senderID:vector ETV
attr source senderID
attr title "ID of node who sent message, vector"
vector 467 Highway.car[14].lteNic.phy sciReceived:vector ETV
attr source sciReceived
attr title "Number of received sci, vector"
vector 468 Highway.car[14].lteNic.phy sciUnsensed:vector ETV
attr source sciUnsensed
attr title "Number of failed SCIs due to RSRP below threshold, vector"
vector 469 Highway.car[14].lteNic.phy sciDecoded:vector ETV
attr source sciDecoded
attr title "Number of sci successfully decoded, vector"
vector 470 Highway.car[14].lteNic.phy sciFailedDueToProp:vector ETV
attr source sciFailedDueToProp
attr title "Number of failed SCIs due to propogation, vector"
vector 471 Highway.car[14].lteNic.phy sciFailedDueToInterference:vector ETV
attr source sciFailedDueToInterference
attr title "Number of failed SCIs due to interference, vector"
vector 472 Highway.car[14].lteNic.phy sciFailedHalfDuplex:vector ETV
attr source sciFailedHalfDuplex
attr title "Number of failed SCIs due to Half Duplex, vector"
vector 473 Highway.car[14].lteNic.phy subchannelReceived:vector ETV
attr source subchannelReceived
attr title "Initial Subchannel on which packet is received, vector"
vector 474 Highway.car[14].lteNic.phy subchannelsUsed:vector ETV
attr source subchannelsUsed
attr title "Number of Subchannels used for the received packet, vector"
vector 475 Highway.car[14].lteNic.phy txRxDistanceTB:vector ETV
attr source txRxDistanceTB
attr title "Distance between transmitter and receiver, vector"
vector 476 Highway.car[14].lteNic.phy tbReceived:vector ETV
attr source tbReceived
attr title "Number of tb received, vector"
vector 477 Highway.car[14].lteNic.phy tbDecoded:vector ETV
attr source tbDecoded
attr title "Number of tb Decoded, vector"
vector 478 Highway.car[14].lteNic.phy tbFailedDueToNoSCI:vector ETV
attr source tbFailedDueToNoSCI
attr title "Number of tb not decoded due to no SCI, vector"
vector 479 Highway.car[14].lteNic.phy tbFailedDueToProp:vector ETV
attr source tbFailedDueToProp
attr title "Number of failed TBs due to propogation, vector"
vector 480 Highway.car[14].lteNic.phy tbFailedDueToInterference:vector ETV
attr source tbFailedDueToInterference
attr title "Number of failed TBs due to interference, vector"
vector 481 Highway.car[14].lteNic.phy tbFailedButSCIReceived:vector ETV
attr source tbFailedButSCIReceived
attr title "Number of failed TBs with a decoded SCI, vector"
vector 482 Highway.car[14].lteNic.phy tbFailedHalfDuplex:vector ETV
attr source tbFailedHalfDuplex
attr title "Number of failed TBs due to Half Duplex, vector"
vector 483 Highway.car[14].lteNic.phy periodic:vector ETV
attr source periodic
attr title "Identifies traffic as periodic or aperiodic, vector"
vector 484 Highway.car[14].lteNic.phy tbFailedDueToPropIgnoreSCI:vector ETV
attr source tbFailedDueToPropIgnoreSCI
attr title "Number of failed TBs due to propogation, vector"
vector 485 Highway.car[14].lteNic.phy tbFailedDueToInterferenceIgnoreSCI:vector ETV
attr source tbFailedDueToInterferenceIgnoreSCI
attr title "Number of failed TBs due to interference, vector"
vector 486 Highway.car[14].lteNic.phy tbDecodedIgnoreSCI:vector ETV
attr source tbDecodedIgnoreSCI
attr title "Number of failed TBs due to interference, vector"
vector 487 Highway.car[14].lteNic.mac receivedPacketFromLowerLayer:vector(packetBytes) ETV
attr interpolationmode none
attr source receivedPacketFromLowerLayer
vector 488 Highway.car[15].lteNic.phy txRxDistanceSCI:vector ETV
attr source txRxDistanceSCI
attr title "Distance between transmitter and receiver, vector"
vector 489 Highway.car[15].lteNic.phy senderID:vector ETV
attr source senderID
attr title "ID of node who sent message, vector"
vector 490 Highway.car[15].lteNic.phy sciReceived:vector ETV
attr source sciReceived
attr title "Number of received sci, vector"
vector 491 Highway.car[15].lteNic.phy sciUnsensed:vector ETV
attr source sciUnsensed
attr title "Number of failed SCIs due to RSRP below threshold, vector"
vector 492 Highway.car[15].lteNic.phy sciDecoded:vector ETV
attr source sciDecoded
attr title "Number of sci successfully decoded, vector"
vector 493 Highway.car[15].lteNic.phy sciFailedDueToProp:vector ETV
attr source sciFailedDueToProp
attr title "Number of failed SCIs due to propogation, vector"
vector 494 Highway.car[15].lteNic.phy sciFailedDueToInterference:vector ETV
attr source sciFailedDueToInterference
attr title "Number of failed SCIs due to interference, vector"
vector 495 Highway.car[15].lteNic.phy sciFailedHalfDuplex:vector ETV
attr source sciFailedHalfDuplex
attr title "Number of failed SCIs due to Half Duplex, vector"
vector 496 Highway.car[15].lteNic.phy subchannelReceived:vector ETV
attr source subchannelReceived
attr title "Initial Subchannel on which packet is received, vector"
vector 497 Highway.car[15].lteNic.phy subchannelsUsed:vector ETV
attr source subchannelsUsed
attr title "Number of Subchannels used for the received packet, vector"
vector 498 Highway.car[15].lteNic.phy txRxDistanceTB:vector ETV
attr source txRxDistanceTB
attr title "Distance between transmitter and receiver, vector"
vector 499 Highway.car[15].lteNic.phy tbReceived:vector ETV
attr source tbReceived
attr title "Number of tb received, vector"
vector 500 Highway.car[15].lteNic.phy tbDecoded:vector ETV
attr source tbDecoded
attr title "Number of tb Decoded, vector"
vector 501 Highway.car[15].lteNic.phy tbFailedDueToNoSCI:vector ETV
attr source tbFailedDueToNoSCI
attr title "Number of tb not decoded due to no SCI, vector"
vector 502 Highway.car[15].lteNic.phy tbFailedDueToProp:vector ETV
attr source tbFailedDueToProp
attr title "Number of failed TBs due to propogation, vector"
vector 503 Highway.car[15].lteNic.phy tbFailedDueToInterference:vector ETV
attr source tbFailedDueToInterference
attr title "Number of failed TBs due to interference, vector"
vector 504 Highway.car[15].lteNic.phy tbFailedButSCIReceived:vector ETV
attr source tbFailedButSCIReceived
attr title "Number of failed TBs with a decoded SCI, vector"
vector 505 Highway.car[15].lteNic.phy tbFailedHalfDuplex:vector ETV
attr source tbFailedHalfDuplex
attr title "Number of failed TBs due to Half Duplex, vector"
vector 506 Highway.car[15].lteNic.phy periodic:vector ETV
attr source periodic
attr title "Identifies traffic as periodic or aperiodic, vector"
vector 507 Highway.car[15].lteNic.phy tbFailedDueToPropIgnoreSCI:vector ETV
[...]
1038	38614	500.566	0
1038	40569	500.59	0
1038	41540	500.602	0
1038	42523	500.614	0
1039	12838	500.194	0
1039	15084	500.227	0
1039	18085	500.272	0
1039	19474	500.291	0
1039	21590	500.322	0
1039	22380	500.331	0
1039	24785	500.365	0
1039	24785	500.365	0
1039	27934	500.411	0
1039	29991	500.439	0
1039	29991	500.439	0
1039	31320	500.455	0
1039	35469	500.519	0
1039	38614	500.566	0
1039	40569	500.59	0
1039	41540	500.602	0
1039	42523	500.614	0
1040	12838	500.194	2
1040	15084	500.227	2
1040	18085	500.272	2
1040	19474	500.291	0
1040	21590	500.322	1
1040	22380	500.331	0
1040	24785	500.365	0
1040	24785	500.365	2
1040	27934	500.411	2
1040	29991	500.439	1
1040	29991	500.439	2
1040	31320	500.455	0
1040	35469	500.519	2
1040	38614	500.566	2
1040	40569	500.59	0
1040	41540	500.602	2
1040	42523	500.614	1
1041	12838	500.194	1
1041	15084	500.227	1
1041	18085	500.272	1
1041	19474	500.291	1
1041	21590	500.322	1
1041	22380	500.331	1
1041	24785	500.365	1
1041	24785	500.365	1
1041	27934	500.411	1
1041	29991	500.439	1
1041	29991	500.439	1
1041	31320	500.455	1
1041	35469	500.519	1
1041	38614	500.566	1
1041	40569	500.59	1
1041	41540	500.602	1
1041	42523	500.614	1
1042	12838	500.194	1103.0314562127
1042	15084	500.227	841.93697573122
1042	18085	500.272	203.12869365406
1042	19474	500.291	711.41547754734
1042	21590	500.322	322.02844838096
1042	22380	500.331	1336.6324405076
1042	24785	500.365	1087.4886741613
1042	24785	500.365	33.385654804313
1042	27934	500.411	1014.6068842934
1042	29991	500.439	102.58316561583
1042	29991	500.439	1146.7352906952
1042	31320	500.455	1389.964582673
1042	35469	500.519	426.70992055738
1042	38614	500.566	1233.8255013161
1042	40569	500.59	349.09348397741
1042	41540	500.602	1049.522628398
1042	42523	500.614	678.50829582956
1043	12838	500.194	1
1043	15084	500.227	1
1043	18085	500.272	1
1043	19474	500.291	1
1043	21590	500.322	1
1043	22380	500.331	1
1043	24785	500.365	1
1043	24785	500.365	1
1043	27934	500.411	1
1043	29991	500.439	1
1043	29991	500.439	1
1043	31320	500.455	1
1043	35469	500.519	1
1043	38614	500.566	1
1043	40569	500.59	1
1043	41540	500.602	1
1043	42523	500.614	1
1044	12838	500.194	0
1044	15084	500.227	0
1044	18085	500.272	1
1044	19474	500.291	0
1044	21590	500.322	1
1044	22380	500.331	0
1044	24785	500.365	0
1044	24785	500.365	1
1044	27934	500.411	0
1044	29991	500.439	1
1044	29991	500.439	0
1044	31320	500.455	0
1044	35469	500.519	1
1044	38614	500.566	0
1044	40569	500.59	1
1044	41540	500.602	0
1044	42523	500.614	0
1045	12838	500.194	1
1045	15084	500.227	1
1045	18085	500.272	0
1045	19474	500.291	1
1045	21590	500.322	0
1045	22380	500.331	1
1045	24785	500.365	1
1045	24785	500.365	0
1045	27934	500.411	1
1045	29991	500.439	0
1045	29991	500.439	1
1045	31320	500.455	1
1045	35469	500.519	0
1045	38614	500.566	1
1045	40569	500.59	0
1045	41540	500.602	1
1045	42523	500.614	1
1046	12838	500.194	0
1046	15084	500.227	0
1046	18085	500.272	0
1046	19474	500.291	0
1046	21590	500.322	0
1046	22380	500.331	0
1046	24785	500.365	0
1046	24785	500.365	0
1046	27934	500.411	0
1046	29991	500.439	0
1046	29991	500.439	0
1046	31320	500.455	0
1046	35469	500.519	0
1046	38614	500.566	0
1046	40569	500.59	0
1046	41540	500.602	0
1046	42523	500.614	0
1047	12838	500.194	0
1047	15084	500.227	0
1047	18085	500.272	0
1047	19474	500.291	0
1047	21590	500.322	0
1047	22380	500.331	0
1047	24785	500.365	0
1047	24785	500.365	0
1047	27934	500.411	0
1047	29991	500.439	0
1047	29991	500.439	0
1047	31320	500.455	0
1047	35469	500.519	0
1047	38614	500.566	0
1047	40569	500.59	0
1047	41540	500.602	0
1047	42523	500.614	0
1048	12838	500.194	0
1048	15084	500.227	0
1048	18085	500.272	0
1048	19474	500.291	0
1048	21590	500.322	0
1048	22380	500.331	0
1048	24785	500.365	0
1048	24785	500.365	0
1048	27934	500.411	0
1048	29991	500.439	0
1048	29991	500.439	0
1048	31320	500.455	0
1048	35469	500.519	0
1048	38614	500.566	0
1048	40569	500.59	0
1048	41540	500.602	0
1048	42523	500.614	0
1049	12838	500.194	0
1049	15084	500.227	0
1049	18085	500.272	0
1049	19474	500.291	0
1049	21590	500.322	0
1049	22380	500.331	0
1049	24785	500.365	0
1049	24785	500.365	0
1049	27934	500.411	0
1049	29991	500.439	0
1049	29991	500.439	0
1049	31320	500.455	0
1049	35469	500.519	0
1049	38614	500.566	0
1049	40569	500.59	0
1049	41540	500.602	0
1049	42523	500.614	0
1050	12838	500.194	1
1050	15084	500.227	1
1050	18085	500.272	1
1050	19474	500.291	1
1050	21590	500.322	1
1050	22380	500.331	1
1050	24785	500.365	1
1050	24785	500.365	1
1050	27934	500.411	1
1050	29991	500.439	1
1050	29991	500.439	1
1050	31320	500.455	1
1050	35469	500.519	1
1050	38614	500.566	1
1050	40569	500.59	1
1050	41540	500.602	1
1050	42523	500.614	1
1051	12838	500.194	0
1051	15084	500.227	0
1051	18085	500.272	0
1051	19474	500.291	0
1051	21590	500.322	0
1051	22380	500.331	0
1051	24785	500.365	0
1051	24785	500.365	0
1051	27934	500.411	0
1051	29991	500.439	0
1051	29991	500.439	0
1051	31320	500.455	0
1051	35469	500.519	0
1051	38614	500.566	0
1051	40569	500.59	0
1051	41540	500.602	0
1051	42523	500.614	0
1052	12838	500.194	0
1052	15084	500.227	0
1052	18085	500.272	0
1052	19474	500.291	0
1052	21590	500.322	0
1052	22380	500.331	0
1052	24785	500.365	0
1052	24785	500.365	0
1052	27934	500.411	0
1052	29991	500.439	0
1052	29991	500.439	0
1052	31320	500.455	0
1052	35469	500.519	0
1052	38614	500.566	0
1052	40569	500.59	0
1052	41540	500.602	0
1052	42523	500.614	0
1053	12838	500.194	1
1053	15084	500.227	1
1053	18085	500.272	1
1053	19474	500.291	1
1053	21590	500.322	1
1053	22380	500.331	1
1053	24785	500.365	1
1053	24785	500.365	1
1053	27934	500.411	1
1053	29991	500.439	1
1053	29991	500.439	1
1053	31320	500.455	1
1053	35469	500.519	1
1053	38614	500.566	1
1053	40569	500.59	1
1053	41540	500.602	1
1053	42523	500.614	1
1054	13002	500.195	0.002
1054	15248	500.228	0.002
1054	18249	500.273	0.002
1054	19638	500.292	0.002
1054	21754	500.323	0.002
1054	22549	500.332	0.002
1054	25047	500.366	0.002
1054	25047	500.366	0.002
1054	28098	500.412	0.002
1054	30253	500.44	0.002
1054	30253	500.44	0.002
1054	31484	500.456	0.002
1054	35633	500.52	0.002
1054	38778	500.567	0.002
1054	40733	500.591	0.002
1054	41704	500.603	0.002
1054	42687	500.615	0.002
1055	13005	500.195	1
1055	15251	500.228	1
1055	18252	500.273	1
1055	19641	500.292	1
1055	21757	500.323	1
1055	22552	500.332	1
1055	25052	500.366	1
1055	25053	500.366	1
1055	28101	500.412	1
1055	30258	500.44	1
1055	30259	500.44	1
1055	31487	500.456	1
1055	35636	500.52	1
1055	38781	500.567	1
1055	40736	500.591	1
1055	41707	500.603	1
1055	42690	500.615	1
1056	13005	500.195	0
1056	15251	500.228	0
1056	18252	500.273	0
1056	19641	500.292	0
1056	21757	500.323	0
1056	22552	500.332	0
1056	25052	500.366	0
1056	25053	500.366	0
1056	28101	500.412	0
1056	30258	500.44	0
1056	30259	500.44	0
1056	31487	500.456	0
1056	35636	500.52	0
1056	37414	500.549	0
1056	38781	500.567	0
1056	40736	500.591	0
1056	41707	500.603	0
1056	42690	500.615	0
1057	13006	500.195	0.07
1057	15252	500.228	0.097
1057	18253	500.273	0.014
1057	19642	500.292	0.028
1057	21758	500.323	0.078
1057	22553	500.332	0.065
1057	25054	500.366	0.031
1057	25055	500.366	0.098
1057	28102	500.412	0.015
1057	30260	500.44	0.017
1057	30261	500.44	0.014
1057	31488	500.456	0.029
1057	35637	500.52	0.02
1057	38782	500.567	0.089
1057	40737	500.591	0.081
1057	41708	500.603	0.014
1057	42691	500.615	0.045
1058	13006	500.195	1
1058	15252	500.228	1
1058	18253	500.273	1
1058	19642	500.292	1
1058	21758	500.323	1
1058	22553	500.332	1
1058	25054	500.366	1
1058	25055	500.366	1
1058	28102	500.412	1
1058	30260	500.44	1
1058	30261	500.44	1
1058	31488	500.456	1
1058	35637	500.52	1
1058	38782	500.567	1
1058	40737	500.591	1
1058	41708	500.603	1
1058	42691	500.615	1
1065	12667	500.193	0
1065	12667	500.193	5
1067	12640	500.193	3
1076	14913	500.226	0
1076	14913	500.226	5
1078	14903	500.226	3
1088	16687	500.252	0.01010101010101
1088	23742	500.352	0.013468013468013
1088	30971	500.452	0.016835016835017
1088	37582	500.552	0.0067340067340067
1089	16687	500.252	0.01010101010101
1089	23742	500.352	0.013468013468013
1089	30971	500.452	0.016835016835017
1089	37582	500.552	0.0033670033670034
1090	16705	500.252	0.01010101010101
1090	23760	500.352	0.013468013468013
1090	30989	500.452	0.016835016835017
1090	37600	500.552	0.0067340067340067
1091	41369	500.601	5
1092	41370	500.601	1
1093	41370	500.601	2
1094	41370	500.601	1
1095	41371	500.601	1
1096	12667	500.193	5
1097	12668	500.193	1
1098	12668	500.193	2
1099	12668	500.193	1
1100	12669	500.193	1
1101	14173	500.214	1
1102	14173	500.214	1
1103	14854	500.226	0.01010101010101
1103	21909	500.326	0.013468013468013
1103	28928	500.426	0.0068027210884354
1103	35980	500.526	0.013468013468013
1104	14854	500.226	0.01010101010101
1104	21909	500.326	0.013468013468013
1104	28928	500.426	0.0068027210884354
1104	35980	500.526	0.013468013468013
1105	14878	500.226	0.01010101010101
1105	21933	500.326	0.013468013468013
1105	28957	500.426	0.0068027210884354
1105	36004	500.526	0.013468013468013
1106	14913	500.226	5
1107	14914	500.226	1
1108	14914	500.226	2
1109	14914	500.226	1
1110	14915	500.226	1
1111	15460	500.232	0.013468013468013
1111	22400	500.332	0.010204081632653
1111	29309	500.432	0.01010101010101
1111	36352	500.532	0.013468013468013
1112	15460	500.232	0.013468013468013
1112	22400	500.332	0.010204081632653
1112	29309	500.432	0.01010101010101
1112	36352	500.532	0.013468013468013
1113	15482	500.232	0.013468013468013
1113	22422	500.332	0.010204081632653
1113	29331	500.432	0.01010101010101
1113	36374	500.532	0.013468013468013
1114	15588	500.234	0.013468013468013
1114	22644	500.334	0.010204081632653
1114	29437	500.434	0.01010101010101
1114	36480	500.534	0.013468013468013
1115	15588	500.234	0.013468013468013
1115	22644	500.334	0.010204081632653
1115	29437	500.434	0.01010101010101
1115	36480	500.534	0.013468013468013
1116	15607	500.234	0.013468013468013
1116	22663	500.334	0.010204081632653
1116	29456	500.434	0.01010101010101
1116	36499	500.534	0.013468013468013
1117	15938	500.239	1
1118	15938	500.239	1
1119	16016	500.241	0.01010101010101
1119	23078	500.341	0.013468013468013
1119	30306	500.441	0.016835016835017
1119	36910	500.541	0.0034013605442177
1120	16016	500.241	0.01010101010101
1120	23078	500.341	0.013468013468013
1120	30306	500.441	0.016835016835017
1120	36910	500.541	0.0034013605442177
1121	16033	500.241	0.01010101010101
1121	23095	500.341	0.013468013468013
1121	30323	500.441	0.016835016835017
1121	36927	500.541	0.0034013605442177
1122	16244	500.245	1
1123	16275	500.245	0
1124	16275	500.245	1
1125	16278	500.245	5
1126	16278	500.245	0
1126	21419	500.321	0
1126	21419	500.321	5
1127	16278	500.245	1
1128	16278	500.245	1
1128	21414	500.321	3
1129	16280	500.245	500.321
1130	16280	500.245	1
1131	16280	500.245	1
1132	16280	500.245	0
1133	16878	500.255	0.0068027210884354
1133	23933	500.355	0.013468013468013
1133	31169	500.455	0.016835016835017
1133	37774	500.555	0.0033670033670034
1134	16878	500.255	0.0068027210884354
1134	23933	500.355	0.013468013468013
1134	31169	500.455	0.016835016835017
1134	37774	500.555	0.0033670033670034
1135	16890	500.255	0.0068027210884354
1135	23945	500.355	0.013468013468013
1135	31181	500.455	0.016835016835017
1135	37786	500.555	0.0033670033670034
1136	17101	500.259	1
1137	17132	500.259	0
1138	17132	500.259	1
1139	17135	500.259	10
1140	17135	500.259	0
1140	17914	500.271	0
1140	17914	500.271	5
1141	17135	500.259	1
1142	17135	500.259	1
1142	17899	500.271	3
1143	17137	500.259	500.271
1144	17137	500.259	2
1145	17137	500.259	1
1146	17137	500.259	0
1147	17408	500.264	1
1148	17439	500.264	0
1149	17439	500.264	1
1150	17442	500.264	8
1151	17442	500.264	0
1151	19303	500.29	0
1151	19303	500.29	5
1152	17442	500.264	1
1153	17442	500.264	1
1153	19285	500.29	3
1154	17444	500.264	500.29
1155	17444	500.264	0
1156	17444	500.264	1
1157	17444	500.264	0
1158	17475	500.264	1
1159	17475	500.264	1
1160	17596	500.267	1
1161	17627	500.267	0
1162	17627	500.267	1
1163	17630	500.267	15
1164	17630	500.267	0
1164	22209	500.33	0
1164	22209	500.33	5
1165	17630	500.267	1
1166	17630	500.267	1
1166	22186	500.33	3
1167	17632	500.267	500.33
1168	17632	500.267	0
1169	17632	500.267	1
1170	17632	500.267	0
1171	17663	500.268	1
1172	17694	500.268	0
1173	17694	500.268	1
1174	17697	500.268	14
1175	17697	500.268	0
1175	24532	500.364	0
1175	24532	500.364	5
1176	17697	500.268	1
1177	17697	500.268	1
1177	24518	500.364	3
1178	17699	500.268	500.364
1179	17699	500.268	2
1180	17699	500.268	1
1181	17699	500.268	0
1182	17914	500.271	5
1183	17915	500.271	1
1184	17915	500.271	2
1185	17915	500.271	1
1186	17916	500.271	1
1187	18938	500.285	0.01010101010101
1187	26178	500.385	0.016835016835017
1187	33214	500.485	0.013468013468013
1187	40086	500.585	0.01010101010101
1188	18938	500.285	0.01010101010101
1188	26178	500.385	0.016835016835017
1188	33214	500.485	0.013468013468013
1188	40086	500.585	0.01010101010101
1189	18968	500.285	0.01010101010101
1189	26208	500.385	0.016835016835017
1189	33244	500.485	0.013468013468013
1189	40116	500.585	0.01010101010101
1190	19303	500.29	5
1191	19304	500.29	1
1192	19304	500.29	0
1193	19304	500.29	1
1194	19305	500.29	1
1195	19718	500.293	1
1196	19718	500.293	1
1197	21419	500.321	5
1198	21420	500.321	1
1199	21420	500.321	1
1200	21420	500.321	1
1201	21421	500.321	1
1202	21964	500.326	1
1203	21964	500.326	1
1204	22209	500.33	5
1205	22210	500.33	1
1206	22210	500.33	0
1207	22210	500.33	1
1208	22211	500.33	1
1209	22694	500.335	1
1210	22725	500.335	0
1211	22725	500.335	1
1212	22728	500.335	14
1213	22728	500.335	0
1213	24529	500.364	0
1213	24529	500.364	5
1214	22728	500.335	1
1215	22728	500.335	1
1215	24505	500.364	3
1216	22730	500.335	500.364
1217	22730	500.335	0
1218	22730	500.335	1
1219	22730	500.335	0
1220	24059	500.357	0.013468013468013
1220	31527	500.457	0.02020202020202
1220	37905	500.557	0.0033670033670034
1221	24059	500.357	0.013468013468013
1221	31527	500.457	0.02020202020202
1221	37905	500.557	0.0033670033670034
1222	24070	500.357	0.013468013468013
1222	31538	500.457	0.02020202020202
1222	37916	500.557	0.0033670033670034
1223	24529	500.364	5
1224	24530	500.364	1
1225	24530	500.364	0
1226	24530	500.364	1
1227	24531	500.364	1
1228	24532	500.364	5
1229	24533	500.364	1
1230	24533	500.364	2
1231	24533	500.364	1
1232	24534	500.364	1
1233	25383	500.371	1
1234	25383	500.371	1
1235	25395	500.372	0.016835016835017
1235	32423	500.472	0.013468013468013
1235	39288	500.572	0.01010101010101
1236	25395	500.372	0.016835016835017
1236	32423	500.472	0.01010101010101
1236	39288	500.572	0.01010101010101
1237	25418	500.372	0.016835016835017
1237	32446	500.472	0.013468013468013
1237	39311	500.572	0.01010101010101
1238	26539	500.39	1
1239	26539	500.39	1
1240	26900	500.397	1
1241	26931	500.397	0
1242	26931	500.397	1
1243	26934	500.397	15
1244	26934	500.397	0
1244	27763	500.41	0
1244	27763	500.41	5
1245	26934	500.397	1
1246	26934	500.397	1
1246	27757	500.41	3
1247	26936	500.397	500.41
1248	26936	500.397	2
1249	26936	500.397	1
1250	26936	500.397	0
1251	27763	500.41	5
1252	27764	500.41	1
1253	27764	500.41	2
1254	27764	500.41	1
1255	27765	500.41	1
1256	28663	500.421	1
1257	28663	500.421	1
1258	28725	500.423	1
1259	28756	500.423	0
1260	28756	500.423	1
1261	28759	500.423	10
1262	28759	500.423	0
1262	29735	500.438	0
1262	29735	500.438	5
1263	28759	500.423	1
1264	28759	500.423	1
1264	29707	500.438	3
1265	28761	500.423	500.438
1266	28761	500.423	1
1267	28761	500.423	1
1268	28761	500.423	0
1269	28917	500.426	1
1270	28948	500.426	0
1271	28948	500.426	1
1272	28954	500.426	12
1273	28954	500.426	0
1273	29738	500.438	0
1273	29738	500.438	5
1274	28954	500.426	1
1275	28954	500.426	1
1275	29719	500.438	3
1276	28958	500.426	500.438
1277	28958	500.426	2
1278	28958	500.426	1
1279	28958	500.426	0
1280	28989	500.427	1
1281	29020	500.427	0
1282	29020	500.427	1
1283	29023	500.427	11
1284	29023	500.427	0
1284	31144	500.454	0
1284	31144	500.454	5
1285	29023	500.427	1
1286	29023	500.427	1
1286	31131	500.454	3
1287	29025	500.427	500.454
1288	29025	500.427	0
1289	29025	500.427	1
1290	29025	500.427	0
1291	29236	500.43	1
1292	29236	500.43	1
1293	29735	500.438	5
1294	29736	500.438	1
1295	29736	500.438	1
1296	29736	500.438	1
1297	29737	500.438	1
1298	29738	500.438	5
1299	29739	500.438	1
1300	29739	500.438	2
1301	29739	500.438	1
1302	29740	500.438	1
1303	31144	500.454	5
1304	31145	500.454	1
1305	31145	500.454	0
1306	31145	500.454	1
1307	31146	500.454	1
1308	31990	500.464	1
1309	31990	500.464	1
1310	31991	500.464	1
1311	31991	500.464	1
1312	32782	500.478	1
1313	32813	500.478	0
1314	32813	500.478	1
1315	32816	500.478	5
1316	32816	500.478	0
1316	38436	500.565	0
1316	38436	500.565	5
1317	32816	500.478	1
1318	32816	500.478	1
1318	38411	500.565	3
1319	32818	500.478	500.565
1320	32818	500.478	2
1321	32818	500.478	1
1322	32818	500.478	0
1323	34115	500.5	1
1324	34147	500.5	0
1325	34147	500.5	1
1326	34150	500.5	9
1327	34150	500.5	0
1327	35298	500.518	0
1327	35298	500.518	5
1328	34150	500.5	1
1329	34150	500.5	1
1329	35270	500.518	3
1330	34152	500.5	500.518
1331	34152	500.5	2
1332	34152	500.5	1
1333	34152	500.5	0
1334	34741	500.51	1
1335	34772	500.51	0
1336	34772	500.51	1
1337	34775	500.51	13
1338	34775	500.51	0
1338	40398	500.589	0
1338	40398	500.589	5
1339	34775	500.51	1
1340	34775	500.51	1
1340	40368	500.589	3
1341	34777	500.51	500.589
1342	34777	500.51	0
1343	34777	500.51	1
1344	34777	500.51	0
1345	34808	500.51	1
1346	34808	500.51	1
1347	35298	500.518	5
1348	35299	500.518	1
1349	35299	500.518	2
1350	35299	500.518	1
1351	35300	500.518	1
1352	35833	500.524	1
1353	35864	500.524	0
1354	35864	500.524	1
1355	35870	500.524	15
1356	35870	500.524	0
1357	35870	500.524	1
1358	35870	500.524	1
1359	35874	500.524	500.621
1360	35874	500.524	2
1361	35874	500.524	1
1362	35874	500.524	0
1363	35906	500.525	0.013468013468013
1364	35906	500.525	0.013468013468013
1365	35939	500.525	0.013468013468013
1366	36243	500.53	0.013468013468013
1367	36243	500.53	0.013468013468013
1368	36249	500.53	0.013468013468013
1369	36770	500.538	1
1370	36770	500.538	1
1371	36771	500.538	1
1372	36771	500.538	1
1373	37407	500.549	0.0067340067340067
1374	37407	500.549	0.0067340067340067
1375	37415	500.549	0.0067340067340067
1376	37751	500.554	1
1377	37751	500.554	1
1378	37817	500.556	0.0033670033670034
1379	37817	500.556	0.0033670033670034
1380	37851	500.556	0.0033670033670034
1381	38211	500.562	0.0033670033670034
1382	38211	500.562	0.0033670033670034
1383	38221	500.562	0.0033670033670034
1384	38436	500.565	5
1385	38437	500.565	1
1386	38437	500.565	2
1387	38437	500.565	1
1388	38438	500.565	1
1389	38856	500.567	0.55
1390	38860	500.567	0.55
1391	38868	500.567	0.55
1392	38872	500.567	0.55
1393	38876	500.567	0.55
1394	38882	500.567	0.55
1395	38886	500.567	0.55
1396	38906	500.567	0.55
1397	38908	500.567	0.55
1398	38910	500.567	0.55
1398	41544	500.602	0.437
1399	39150	500.57	1
1400	39181	500.57	0
1401	39181	500.57	1
1402	39184	500.57	6
1403	39184	500.57	0
1403	42345	500.613	0
1403	42345	500.613	5
1404	39184	500.57	1
1405	39184	500.57	1
1405	42336	500.613	3
1406	39186	500.57	500.613
1407	39186	500.57	1
1408	39186	500.57	1
1409	39186	500.57	0
1410	39648	500.578	1
1411	39679	500.578	0
1412	39679	500.578	1
1413	39682	500.578	15
1414	39682	500.578	0
1415	39682	500.578	1
1416	39682	500.578	1
1417	39684	500.578	500.665
1418	39684	500.578	1
1419	39684	500.578	1
1420	39684	500.578	0
1421	40398	500.589	5
1422	40399	500.589	1
1423	40399	500.589	0
1424	40399	500.589	1
1425	40400	500.589	1
1426	41115	500.598	0.010204081632653
1427	41115	500.598	0.010204081632653
1428	41147	500.598	0.010204081632653
1429	41492	500.602	0.437
1430	41496	500.602	0.437
1431	41498	500.602	0.437
1432	41500	500.602	0.437
1433	41504	500.602	0.437
1434	41508	500.602	0.437
1435	41512	500.602	0.437
1436	41514	500.602	0.437
1437	41518	500.602	0.437
1438	41522	500.602	0.437
1439	41524	500.602	0.437
1440	41526	500.602	0.437
1441	41528	500.602	0.437
1442	41530	500.602	0.437
1443	41532	500.602	0.437
1444	41534	500.602	0.437
1445	41536	500.602	0.437
1446	41546	500.602	0.437
1447	42224	500.612	0.016835016835017
1448	42224	500.612	0.016835016835017
1449	42250	500.612	0.016835016835017
1450	42345	500.613	5
1451	42346	500.613	1
1452	42346	500.613	1
1453	42346	500.613	1
1454	42347	500.613	1

