file 479814 1657541497                                          
version 2
run Hackathon114-0-20220711-21:10:05-6797
attr configname Hackathon114
attr datetime 20220711-21:10:05
attr experiment Hackathon114
attr inifile omnetpp.ini
attr iterationvars ""
attr iterationvarsf ""
attr measurement ""
attr network lte.simulations.Mode4.Highway
attr processid 6797
attr repetition 0
attr replication #0
attr resultdir results
attr runnumber 0
attr seedset 0
param *.car[*].d2dCapable true
param *.car[*].mode4D2D true
param **.amcMode "\"D2D\""
param *.car[*].applType "\"Mode4App\""
param *.car[*].appl.packetSize 190
param *.car[*].nicType "\"LteNicVUeMode4\""
param *.car[*].lteNic.d2dCapable true
param *.car[*].lteNic.pdcpRrc.ipBased false
param *.car[*].lteNic.rlc.ipBased false
param *.car[*].lteNic.mac.subchannelSize 16
param *.car[*].lteNic.mac.numSubchannels 3
param *.car[*].lteNic.mac.probResourceKeep 0.4
param *.car[*].lteNic.mac.useCBR false
param *.car[*].lteNic.mac.crLimit false
param *.car[*].lteNic.mac.rriLookup false
param *.car[*].lteNic.mac.dccMechanism false
param *.car[*].lteNic.mac.packetDropping false
param *.car[*].lteNic.mac.reselectAfter 1
param *.car[*].lteNic.mac.adjacencyPSCCHPSSCH true
param *.car[*].lteNic.rlc.um.scenario3gpp false
param *.car[*].lteNic.phy.subchannelSize 16
param *.car[*].lteNic.phy.numSubchannels 3
param *.car[*].lteNic.phy.selectionWindowStartingSubframe 1
param *.car[*].lteNic.phy.adjacencyPSCCHPSSCH true
param *.car[*].lteNic.phy.pStep 100
param *.car[*].lteNic.phy.thresholdRSSI 10
param *.car[*].ueTxPower 23
param *.car[*].lteNic.phy.d2dTxPower 23
param *.**.nic.lteNic.phy.usePropagationDelay true
param *.visualizer.mediumVisualizer.displaySignals true
param *.visualizer.physicalLinkVisualizer.displayLinks true
param *.visualizer.physicalLinkVisualizer.packetFilter "\"Mode4Data*\""
param **.usePreconfiguredTxParams true
param **.lteNic.mac.txConfig "xmldoc(\"sidelink_configuration.xml\")"
param **.coreDebug false
param **.routingRecorder.enabled false
param *.playgroundSizeX 2000000m
param *.playgroundSizeY 2000000m
param *.playgroundSizeZ 50m
param **.channelControl.pMax 10W
param **.channelControl.alpha 1.0
param **.channelControl.carrierFrequency 6000e+6Hz
param **.lteNic.phy.channelModel "xmldoc(\"config_channel.xml\")"
param **.feedbackComputation "xmldoc(\"config_channel.xml\")"
param **.rbAllocationType "\"localized\""
param **.feedbackType "\"ALLBANDS\""
param **.feedbackGeneratorType "\"IDEAL\""
param **.maxHarqRtx 0
param **.deployer.ruRange 50
param **.deployer.ruTxPower "\"50,50,50;\""
param **.deployer.antennaCws "\"2;\""
param **.deployer.numRbDl 51
param **.deployer.numRbUl 48
param **.numBands 48
param **.fbDelay 1
param *.veinsManager.moduleType "\"lte.corenetwork.nodes.cars.CarIPv6\""
param *.veinsManager.moduleName "\"car\""
param *.veinsManager.moduleDisplayString "\"\""
param *.veinsManager.launchConfig "xmldoc(\"highway/006vpm/highway.launchd.xml\")"
param *.veinsManager.updateInterval 0.1s
param *.veinsManager.firstStepAt 500s
param *.car[*].mobilityType "\"VeinsInetMobility\""
param **.deployer.positionUpdateInterval 0.01s

vector 0 Highway.car[0].lteNic.phy servingCell:vector ETV
attr source servingCell
attr title "ID of the serving eNodeB for the UE, vector"
attr unit ""
vector 1 Highway.car[0].lteNic.mac macNodeID:vector ETV
attr source macNodeID
attr title "Reports Mac NodeID to allow for trans to nodeID, vector"
vector 2 Highway.car[1].lteNic.phy servingCell:vector ETV
attr source servingCell
attr title "ID of the serving eNodeB for the UE, vector"
attr unit ""
vector 3 Highway.car[1].lteNic.mac macNodeID:vector ETV
attr source macNodeID
attr title "Reports Mac NodeID to allow for trans to nodeID, vector"
vector 4 Highway.car[2].lteNic.phy servingCell:vector ETV
attr source servingCell
attr title "ID of the serving eNodeB for the UE, vector"
attr unit ""
vector 5 Highway.car[2].lteNic.mac macNodeID:vector ETV
attr source macNodeID
attr title "Reports Mac NodeID to allow for trans to nodeID, vector"
vector 6 Highway.car[3].lteNic.phy servingCell:vector ETV
attr source servingCell
attr title "ID of the serving eNodeB for the UE, vector"
attr unit ""
vector 7 Highway.car[3].lteNic.mac macNodeID:vector ETV
attr source macNodeID
attr title "Reports Mac NodeID to allow for trans to nodeID, vector"
vector 8 Highway.car[4].lteNic.phy servingCell:vector ETV
attr source servingCell
attr title "ID of the serving eNodeB for the UE, vector"
attr unit ""
vector 9 Highway.car[4].lteNic.mac macNodeID:vector ETV
attr source macNodeID
attr title "Reports Mac NodeID to allow for trans to nodeID, vector"
vector 10 Highway.car[5].lteNic.phy servingCell:vector ETV
attr source servingCell
attr title "ID of the serving eNodeB for the UE, vector"
attr unit ""
vector 11 Highway.car[5].lteNic.mac macNodeID:vector ETV
attr source macNodeID
attr title "Reports Mac NodeID to allow for trans to nodeID, vector"
vector 12 Highway.car[6].lteNic.phy servingCell:vector ETV
attr source servingCell
attr title "ID of the serving eNodeB for the UE, vector"
attr unit ""
vector 13 Highway.car[6].lteNic.mac macNodeID:vector ETV
attr source macNodeID
attr title "Reports Mac NodeID to allow for trans to nodeID, vector"
vector 14 Highway.car[7].lteNic.phy servingCell:vector ETV
attr source servingCell
attr title "ID of the serving eNodeB for the UE, vector"
attr unit ""
vector 15 Highway.car[7].lteNic.mac macNodeID:vector ETV
attr source macNodeID
attr title "Reports Mac NodeID to allow for trans to nodeID, vector"
vector 16 Highway.car[8].lteNic.phy servingCell:vector ETV
attr source servingCell
attr title "ID of the serving eNodeB for the UE, vector"
attr unit ""
vector 17 Highway.car[8].lteNic.mac macNodeID:vector ETV
attr source macNodeID
attr title "Reports Mac NodeID to allow for trans to nodeID, vector"
vector 18 Highway.car[9].lteNic.phy servingCell:vector ETV
attr source servingCell
attr title "ID of the serving eNodeB for the UE, vector"
attr unit ""
vector 19 Highway.car[9].lteNic.mac macNodeID:vector ETV
attr source macNodeID
attr title "Reports Mac NodeID to allow for trans to nodeID, vector"
vector 20 Highway.car[10].lteNic.phy servingCell:vector ETV
attr source servingCell
attr title "ID of the serving eNodeB for the UE, vector"
attr unit ""
vector 21 Highway.car[10].lteNic.mac macNodeID:vector ETV
attr source macNodeID
attr title "Reports Mac NodeID to allow for trans to nodeID, vector"
vector 22 Highway.car[11].lteNic.phy servingCell:vector ETV
attr source servingCell
attr title "ID of the serving eNodeB for the UE, vector"
attr unit ""
vector 23 Highway.car[11].lteNic.mac macNodeID:vector ETV
attr source macNodeID
attr title "Reports Mac NodeID to allow for trans to nodeID, vector"
vector 24 Highway.car[12].lteNic.phy servingCell:vector ETV
attr source servingCell
attr title "ID of the serving eNodeB for the UE, vector"
attr unit ""
vector 25 Highway.car[12].lteNic.mac macNodeID:vector ETV
attr source macNodeID
attr title "Reports Mac NodeID to allow for trans to nodeID, vector"
vector 26 Highway.car[13].lteNic.phy servingCell:vector ETV
attr source servingCell
attr title "ID of the serving eNodeB for the UE, vector"
attr unit ""
vector 27 Highway.car[13].lteNic.mac macNodeID:vector ETV
attr source macNodeID
attr title "Reports Mac NodeID to allow for trans to nodeID, vector"
vector 28 Highway.car[14].lteNic.phy servingCell:vector ETV
attr source servingCell
attr title "ID of the serving eNodeB for the UE, vector"
attr unit ""
vector 29 Highway.car[14].lteNic.mac macNodeID:vector ETV
attr source macNodeID
attr title "Reports Mac NodeID to allow for trans to nodeID, vector"
vector 30 Highway.car[15].lteNic.phy servingCell:vector ETV
attr source servingCell
attr title "ID of the serving eNodeB for the UE, vector"
attr unit ""
vector 31 Highway.car[15].lteNic.mac macNodeID:vector ETV
attr source macNodeID
attr title "Reports Mac NodeID to allow for trans to nodeID, vector"
vector 32 Highway.car[16].lteNic.phy servingCell:vector ETV
attr source servingCell
attr title "ID of the serving eNodeB for the UE, vector"
attr unit ""
vector 33 Highway.car[16].lteNic.mac macNodeID:vector ETV
attr source macNodeID
attr title "Reports Mac NodeID to allow for trans to nodeID, vector"
vector 34 Highway.car[17].lteNic.phy servingCell:vector ETV
attr source servingCell
attr title "ID of the serving eNodeB for the UE, vector"
attr unit ""
vector 35 Highway.car[17].lteNic.mac macNodeID:vector ETV
attr source macNodeID
attr title "Reports Mac NodeID to allow for trans to nodeID, vector"
vector 36 Highway.car[18].lteNic.phy servingCell:vector ETV
attr source servingCell
attr title "ID of the serving eNodeB for the UE, vector"
attr unit ""
vector 37 Highway.car[18].lteNic.mac macNodeID:vector ETV
attr source macNodeID
attr title "Reports Mac NodeID to allow for trans to nodeID, vector"
vector 38 Highway.car[19].lteNic.phy servingCell:vector ETV
attr source servingCell
attr title "ID of the serving eNodeB for the UE, vector"
attr unit ""
vector 39 Highway.car[19].lteNic.mac macNodeID:vector ETV
attr source macNodeID
attr title "Reports Mac NodeID to allow for trans to nodeID, vector"
vector 40 Highway.car[20].lteNic.phy servingCell:vector ETV
attr source servingCell
attr title "ID of the serving eNodeB for the UE, vector"
attr unit ""
vector 41 Highway.car[20].lteNic.mac macNodeID:vector ETV
attr source macNodeID
attr title "Reports Mac NodeID to allow for trans to nodeID, vector"
vector 42 Highway.car[21].lteNic.phy servingCell:vector ETV
attr source servingCell
attr title "ID of the serving eNodeB for the UE, vector"
attr unit ""
vector 43 Highway.car[21].lteNic.mac macNodeID:vector ETV
attr source macNodeID
attr title "Reports Mac NodeID to allow for trans to nodeID, vector"
vector 44 Highway.car[22].lteNic.phy servingCell:vector ETV
attr source servingCell
attr title "ID of the serving eNodeB for the UE, vector"
attr unit ""
vector 45 Highway.car[22].lteNic.mac macNodeID:vector ETV
attr source macNodeID
attr title "Reports Mac NodeID to allow for trans to nodeID, vector"
vector 46 Highway.car[23].lteNic.phy servingCell:vector ETV
attr source servingCell
attr title "ID of the serving eNodeB for the UE, vector"
attr unit ""
vector 47 Highway.car[23].lteNic.mac macNodeID:vector ETV
attr source macNodeID
attr title "Reports Mac NodeID to allow for trans to nodeID, vector"
vector 48 Highway.car[24].lteNic.phy servingCell:vector ETV
attr source servingCell
attr title "ID of the serving eNodeB for the UE, vector"
attr unit ""
vector 49 Highway.car[24].lteNic.mac macNodeID:vector ETV
attr source macNodeID
attr title "Reports Mac NodeID to allow for trans to nodeID, vector"
vector 50 Highway.car[25].lteNic.phy servingCell:vector ETV
attr source servingCell
attr title "ID of the serving eNodeB for the UE, vector"
attr unit ""
vector 51 Highway.car[25].lteNic.mac macNodeID:vector ETV
attr source macNodeID
attr title "Reports Mac NodeID to allow for trans to nodeID, vector"
vector 52 Highway.car[26].lteNic.phy servingCell:vector ETV
attr source servingCell
attr title "ID of the serving eNodeB for the UE, vector"
attr unit ""
vector 53 Highway.car[26].lteNic.mac macNodeID:vector ETV
attr source macNodeID
attr title "Reports Mac NodeID to allow for trans to nodeID, vector"
vector 54 Highway.car[27].lteNic.phy servingCell:vector ETV
attr source servingCell
attr title "ID of the serving eNodeB for the UE, vector"
attr unit ""
vector 55 Highway.car[27].lteNic.mac macNodeID:vector ETV
attr source macNodeID
attr title "Reports Mac NodeID to allow for trans to nodeID, vector"
vector 56 Highway.car[28].lteNic.phy servingCell:vector ETV
attr source servingCell
attr title "ID of the serving eNodeB for the UE, vector"
attr unit ""
vector 57 Highway.car[28].lteNic.mac macNodeID:vector ETV
attr source macNodeID
attr title "Reports Mac NodeID to allow for trans to nodeID, vector"
vector 58 Highway.car[29].lteNic.phy servingCell:vector ETV
attr source servingCell
attr title "ID of the serving eNodeB for the UE, vector"
attr unit ""
vector 59 Highway.car[29].lteNic.mac macNodeID:vector ETV
attr source macNodeID
attr title "Reports Mac NodeID to allow for trans to nodeID, vector"
vector 60 Highway.car[0].lteNic.phy posX:vector ETV
attr source posX
attr title "X position of node (at reception time), vector"
vector 61 Highway.car[0].lteNic.phy posY:vector ETV
attr source posY
attr title "Y position of node (at reception time), vector"
vector 62 Highway.car[1].lteNic.phy posX:vector ETV
attr source posX
attr title "X position of node (at reception time), vector"
vector 63 Highway.car[1].lteNic.phy posY:vector ETV
attr source posY
attr title "Y position of node (at reception time), vector"
vector 64 Highway.car[2].lteNic.phy posX:vector ETV
attr source posX
attr title "X position of node (at reception time), vector"
vector 65 Highway.car[2].lteNic.phy posY:vector ETV
attr source posY
attr title "Y position of node (at reception time), vector"
vector 66 Highway.car[3].lteNic.phy posX:vector ETV
attr source posX
attr title "X position of node (at reception time), vector"
vector 67 Highway.car[3].lteNic.phy posY:vector ETV
attr source posY
attr title "Y position of node (at reception time), vector"
vector 68 Highway.car[4].lteNic.phy posX:vector ETV
attr source posX
attr title "X position of node (at reception time), vector"
vector 69 Highway.car[4].lteNic.phy posY:vector ETV
attr source posY
attr title "Y position of node (at reception time), vector"
vector 70 Highway.car[5].lteNic.phy posX:vector ETV
attr source posX
attr title "X position of node (at reception time), vector"
vector 71 Highway.car[5].lteNic.phy posY:vector ETV
attr source posY
attr title "Y position of node (at reception time), vector"
vector 72 Highway.car[6].lteNic.phy posX:vector ETV
attr source posX
attr title "X position of node (at reception time), vector"
vector 73 Highway.car[6].lteNic.phy posY:vector ETV
attr source posY
attr title "Y position of node (at reception time), vector"
vector 74 Highway.car[7].lteNic.phy posX:vector ETV
attr source posX
attr title "X position of node (at reception time), vector"
vector 75 Highway.car[7].lteNic.phy posY:vector ETV
attr source posY
attr title "Y position of node (at reception time), vector"
vector 76 Highway.car[8].lteNic.phy posX:vector ETV
attr source posX
attr title "X position of node (at reception time), vector"
vector 77 Highway.car[8].lteNic.phy posY:vector ETV
attr source posY
attr title "Y position of node (at reception time), vector"
vector 78 Highway.car[9].lteNic.phy posX:vector ETV
attr source posX
attr title "X position of node (at reception time), vector"
vector 79 Highway.car[9].lteNic.phy posY:vector ETV
attr source posY
attr title "Y position of node (at reception time), vector"
vector 80 Highway.car[10].lteNic.phy posX:vector ETV
attr source posX
attr title "X position of node (at reception time), vector"
vector 81 Highway.car[10].lteNic.phy posY:vector ETV
attr source posY
attr title "Y position of node (at reception time), vector"
vector 82 Highway.car[11].lteNic.phy posX:vector ETV
attr source posX
attr title "X position of node (at reception time), vector"
vector 83 Highway.car[11].lteNic.phy posY:vector ETV
attr source posY
attr title "Y position of node (at reception time), vector"
vector 84 Highway.car[12].lteNic.phy posX:vector ETV
attr source posX
attr title "X position of node (at reception time), vector"
vector 85 Highway.car[12].lteNic.phy posY:vector ETV
attr source posY
attr title "Y position of node (at reception time), vector"
vector 86 Highway.car[13].lteNic.phy posX:vector ETV
attr source posX
attr title "X position of node (at reception time), vector"
vector 87 Highway.car[13].lteNic.phy posY:vector ETV
attr source posY
attr title "Y position of node (at reception time), vector"
vector 88 Highway.car[13].lteNic.phy cbr:vector ETV
attr source cbr
attr title "Channel Busy Ratio, vector"
vector 89 Highway.car[13].lteNic.phy cbrPscch:vector ETV
attr source cbrPscch
attr title "Channel Busy Ratio for PSCCH, vector"
vector 90 Highway.car[14].lteNic.phy posX:vector ETV
attr source posX
attr title "X position of node (at reception time), vector"
vector 91 Highway.car[14].lteNic.phy posY:vector ETV
attr source posY
attr title "Y position of node (at reception time), vector"
vector 92 Highway.car[15].lteNic.phy posX:vector ETV
attr source posX
attr title "X position of node (at reception time), vector"
vector 93 Highway.car[15].lteNic.phy posY:vector ETV
attr source posY
attr title "Y position of node (at reception time), vector"
vector 94 Highway.car[16].lteNic.phy posX:vector ETV
attr source posX
attr title "X position of node (at reception time), vector"
vector 95 Highway.car[16].lteNic.phy posY:vector ETV
attr source posY
attr title "Y position of node (at reception time), vector"
vector 96 Highway.car[17].lteNic.phy posX:vector ETV
attr source posX
attr title "X position of node (at reception time), vector"
vector 97 Highway.car[17].lteNic.phy posY:vector ETV
attr source posY
attr title "Y position of node (at reception time), vector"
vector 98 Highway.car[18].lteNic.phy posX:vector ETV
attr source posX
attr title "X position of node (at reception time), vector"
vector 99 Highway.car[18].lteNic.phy posY:vector ETV
attr source posY
attr title "Y position of node (at reception time), vector"
vector 100 Highway.car[19].lteNic.phy posX:vector ETV
attr source posX
attr title "X position of node (at reception time), vector"
vector 101 Highway.car[19].lteNic.phy posY:vector ETV
attr source posY
attr title "Y position of node (at reception time), vector"
vector 102 Highway.car[20].lteNic.phy posX:vector ETV
attr source posX
attr title "X position of node (at reception time), vector"
vector 103 Highway.car[20].lteNic.phy posY:vector ETV
attr source posY
attr title "Y position of node (at reception time), vector"
vector 104 Highway.car[21].lteNic.phy posX:vector ETV
attr source posX
attr title "X position of node (at reception time), vector"
vector 105 Highway.car[21].lteNic.phy posY:vector ETV
attr source posY
attr title "Y position of node (at reception time), vector"
vector 106 Highway.car[22].lteNic.phy posX:vector ETV
attr source posX
attr title "X position of node (at reception time), vector"
vector 107 Highway.car[22].lteNic.phy posY:vector ETV
attr source posY
attr title "Y position of node (at reception time), vector"
vector 108 Highway.car[23].lteNic.phy posX:vector ETV
attr source posX
attr title "X position of node (at reception time), vector"
vector 109 Highway.car[23].lteNic.phy posY:vector ETV
attr source posY
attr title "Y position of node (at reception time), vector"
vector 110 Highway.car[24].lteNic.phy posX:vector ETV
attr source posX
attr title "X position of node (at reception time), vector"
vector 111 Highway.car[24].lteNic.phy posY:vector ETV
attr source posY
attr title "Y position of node (at reception time), vector"
vector 112 Highway.car[25].lteNic.phy posX:vector ETV
attr source posX
attr title "X position of node (at reception time), vector"
vector 113 Highway.car[25].lteNic.phy posY:vector ETV
attr source posY
attr title "Y position of node (at reception time), vector"
vector 114 Highway.car[26].lteNic.phy posX:vector ETV
attr source posX
attr title "X position of node (at reception time), vector"
vector 115 Highway.car[26].lteNic.phy posY:vector ETV
attr source posY
attr title "Y position of node (at reception time), vector"
vector 116 Highway.car[27].lteNic.phy posX:vector ETV
attr source posX
attr title "X position of node (at reception time), vector"
vector 117 Highway.car[27].lteNic.phy posY:vector ETV
attr source posY
attr title "Y position of node (at reception time), vector"
vector 118 Highway.car[28].lteNic.phy posX:vector ETV
attr source posX
attr title "X position of node (at reception time), vector"
vector 119 Highway.car[28].lteNic.phy posY:vector ETV
attr source posY
attr title "Y position of node (at reception time), vector"
vector 120 Highway.car[29].lteNic.phy posX:vector ETV
attr source posX
attr title "X position of node (at reception time), vector"
vector 121 Highway.car[29].lteNic.phy posY:vector ETV
attr source posY
attr title "Y position of node (at reception time), vector"
vector 122 Highway.car[13].lteNic.mac receivedPacketFromLowerLayer:vector(packetBytes) ETV
attr interpolationmode none
attr source receivedPacketFromLowerLayer
vector 123 Highway.car[13].lteNic.mac sentPacketToUpperLayer:vector(packetBytes) ETV
attr interpolationmode none
attr source sentPacketToUpperLayer
vector 124 Highway.car[13].lteNic.pdcpRrc sentPacketToUpperLayer:vector(packetBytes) ETV
attr interpolationmode none
attr source sentPacketToUpperLayer
vector 125 Highway.car[13].appl cbr:vector ETV
attr source cbr
attr title "Channel Busy Ratio, vector"
attr unit ""
vector 126 Highway.car[26].appl sentMsg:vector ETV
attr source sentMsg
attr title "Messages sent, vector"
attr unit ""
vector 127 Highway.car[26].lteNic.pdcpRrc receivedPacketFromUpperLayer:vector(packetBytes) ETV
attr interpolationmode none
attr source receivedPacketFromUpperLayer
vector 128 Highway.car[26].lteNic.pdcpRrc sentPacketToLowerLayer:vector(packetBytes) ETV
attr interpolationmode none
attr source sentPacketToLowerLayer
vector 129 Highway.car[26].lteNic.mac resourceReselectionCounter:vector ETV
attr source resourceReselectionCounter
attr title "ResourceReselectionCounter selectedNumber of transmissions, vector"
vector 130 Highway.car[26].lteNic.mac sentPacketToLowerLayer:vector(packetBytes) ETV
attr interpolationmode none
attr source sentPacketToLowerLayer
vector 131 Highway.car[26].lteNic.mac grantRequests:vector ETV
attr source grantRequests
attr title "Total number of requested grants, vector"
vector 132 Highway.car[26].lteNic.mac receivedPacketFromUpperLayer:vector(packetBytes) ETV
attr interpolationmode none
attr source receivedPacketFromUpperLayer
vector 133 Highway.car[26].lteNic.mac receivedPacketFromLowerLayer:vector(packetBytes) ETV
attr interpolationmode none
attr source receivedPacketFromLowerLayer
vector 134 Highway.car[26].lteNic.mac grantStartTime:vector ETV
attr source grantStartTime
attr title "Grant StartTime, vector"
vector 135 Highway.car[26].lteNic.mac selectedSubchannelIndex:vector ETV
attr source selectedSubchannelIndex
attr title "SelectedSubchannelIndex, vector"
vector 136 Highway.car[26].lteNic.mac selectedNumSubchannels:vector ETV
attr source selectedNumSubchannels
attr title "SelectedNumSubchannels, vector"
vector 137 Highway.car[26].lteNic.mac takingReservedGrant:vector ETV
attr source takingReservedGrant
attr title "takingReservedGrant, vector"
vector 138 Highway.car[26].lteNic.mac sentPacketToUpperLayer:vector(packetBytes) ETV
attr interpolationmode none
attr source sentPacketToUpperLayer
vector 139 Highway.car[26].lteNic.mac selectedMCS:vector ETV
attr source selectedMCS
attr title "MCS selected for transmission, vector"
vector 140 Highway.car[26].lteNic.phy sciSent:vector ETV
attr source sciSent
attr title "Number of sci sent, vector"
vector 141 Highway.car[26].lteNic.phy subchannelSent:vector ETV
attr source subchannelSent
attr title "starting Subchannel used for sent message, vector"
vector 142 Highway.car[26].lteNic.phy subchannelsUsedToSend:vector ETV
attr source subchannelsUsedToSend
attr title "Number of subchannels used for message, vector"
vector 143 Highway.car[26].lteNic.phy tbSent:vector ETV
attr source tbSent
attr title "Number of tb sent, vector"
vector 144 Highway.car[0].lteNic.phy txRxDistanceSCI:vector ETV
attr source txRxDistanceSCI
attr title "Distance between transmitter and receiver, vector"
vector 145 Highway.car[0].lteNic.phy senderID:vector ETV
attr source senderID
attr title "ID of node who sent message, vector"
vector 146 Highway.car[0].lteNic.phy sciReceived:vector ETV
attr source sciReceived
attr title "Number of received sci, vector"
vector 147 Highway.car[0].lteNic.phy sciUnsensed:vector ETV
attr source sciUnsensed
attr title "Number of failed SCIs due to RSRP below threshold, vector"
vector 148 Highway.car[0].lteNic.phy sciDecoded:vector ETV
attr source sciDecoded
attr title "Number of sci successfully decoded, vector"
vector 149 Highway.car[0].lteNic.phy sciFailedDueToProp:vector ETV
attr source sciFailedDueToProp
attr title "Number of failed SCIs due to propogation, vector"
vector 150 Highway.car[0].lteNic.phy sciFailedDueToInterference:vector ETV
attr source sciFailedDueToInterference
attr title "Number of failed SCIs due to interference, vector"
vector 151 Highway.car[0].lteNic.phy sciFailedHalfDuplex:vector ETV
attr source sciFailedHalfDuplex
attr title "Number of failed SCIs due to Half Duplex, vector"
vector 152 Highway.car[0].lteNic.phy subchannelReceived:vector ETV
attr source subchannelReceived
attr title "Initial Subchannel on which packet is received, vector"
vector 153 Highway.car[0].lteNic.phy subchannelsUsed:vector ETV
attr source subchannelsUsed
attr title "Number of Subchannels used for the received packet, vector"
vector 154 Highway.car[0].lteNic.phy txRxDistanceTB:vector ETV
attr source txRxDistanceTB
attr title "Distance between transmitter and receiver, vector"
vector 155 Highway.car[0].lteNic.phy tbReceived:vector ETV
attr source tbReceived
attr title "Number of tb received, vector"
vector 156 Highway.car[0].lteNic.phy tbDecoded:vector ETV
attr source tbDecoded
attr title "Number of tb Decoded, vector"
vector 157 Highway.car[0].lteNic.phy tbFailedDueToNoSCI:vector ETV
attr source tbFailedDueToNoSCI
attr title "Number of tb not decoded due to no SCI, vector"
vector 158 Highway.car[0].lteNic.phy tbFailedDueToProp:vector ETV
attr source tbFailedDueToProp
attr title "Number of failed TBs due to propogation, vector"
vector 159 Highway.car[0].lteNic.phy tbFailedDueToInterference:vector ETV
attr source tbFailedDueToInterference
attr title "Number of failed TBs due to interference, vector"
vector 160 Highway.car[0].lteNic.phy tbFailedButSCIReceived:vector ETV
attr source tbFailedButSCIReceived
attr title "Number of failed TBs with a decoded SCI, vector"
vector 161 Highway.car[0].lteNic.phy tbFailedHalfDuplex:vector ETV
attr source tbFailedHalfDuplex
attr title "Number of failed TBs due to Half Duplex, vector"
vector 162 Highway.car[0].lteNic.phy periodic:vector ETV
attr source periodic
attr title "Identifies traffic as periodic or aperiodic, vector"
vector 163 Highway.car[0].lteNic.phy tbFailedDueToPropIgnoreSCI:vector ETV
attr source tbFailedDueToPropIgnoreSCI
attr title "Number of failed TBs due to propogation, vector"
vector 164 Highway.car[0].lteNic.phy tbFailedDueToInterferenceIgnoreSCI:vector ETV
attr source tbFailedDueToInterferenceIgnoreSCI
attr title "Number of failed TBs due to interference, vector"
vector 165 Highway.car[0].lteNic.phy tbDecodedIgnoreSCI:vector ETV
attr source tbDecodedIgnoreSCI
attr title "Number of failed TBs due to interference, vector"
vector 166 Highway.car[0].lteNic.mac receivedPacketFromLowerLayer:vector(packetBytes) ETV
attr interpolationmode none
attr source receivedPacketFromLowerLayer
vector 167 Highway.car[1].lteNic.phy txRxDistanceSCI:vector ETV
attr source txRxDistanceSCI
attr title "Distance between transmitter and receiver, vector"
vector 168 Highway.car[1].lteNic.phy senderID:vector ETV
attr source senderID
attr title "ID of node who sent message, vector"
vector 169 Highway.car[1].lteNic.phy sciReceived:vector ETV
attr source sciReceived
attr title "Number of received sci, vector"
vector 170 Highway.car[1].lteNic.phy sciUnsensed:vector ETV
attr source sciUnsensed
attr title "Number of failed SCIs due to RSRP below threshold, vector"
vector 171 Highway.car[1].lteNic.phy sciDecoded:vector ETV
attr source sciDecoded
attr title "Number of sci successfully decoded, vector"
vector 172 Highway.car[1].lteNic.phy sciFailedDueToProp:vector ETV
attr source sciFailedDueToProp
attr title "Number of failed SCIs due to propogation, vector"
vector 173 Highway.car[1].lteNic.phy sciFailedDueToInterference:vector ETV
attr source sciFailedDueToInterference
attr title "Number of failed SCIs due to interference, vector"
vector 174 Highway.car[1].lteNic.phy sciFailedHalfDuplex:vector ETV
attr source sciFailedHalfDuplex
attr title "Number of failed SCIs due to Half Duplex, vector"
vector 175 Highway.car[1].lteNic.phy subchannelReceived:vector ETV
attr source subchannelReceived
attr title "Initial Subchannel on which packet is received, vector"
vector 176 Highway.car[1].lteNic.phy subchannelsUsed:vector ETV
attr source subchannelsUsed
attr title "Number of Subchannels used for the received packet, vector"
vector 177 Highway.car[1].lteNic.phy txRxDistanceTB:vector ETV
attr source txRxDistanceTB
attr title "Distance between transmitter and receiver, vector"
vector 178 Highway.car[1].lteNic.phy tbReceived:vector ETV
attr source tbReceived
attr title "Number of tb received, vector"
vector 179 Highway.car[1].lteNic.phy tbDecoded:vector ETV
attr source tbDecoded
attr title "Number of tb Decoded, vector"
vector 180 Highway.car[1].lteNic.phy tbFailedDueToNoSCI:vector ETV
attr source tbFailedDueToNoSCI
attr title "Number of tb not decoded due to no SCI, vector"
vector 181 Highway.car[1].lteNic.phy tbFailedDueToProp:vector ETV
attr source tbFailedDueToProp
attr title "Number of failed TBs due to propogation, vector"
vector 182 Highway.car[1].lteNic.phy tbFailedDueToInterference:vector ETV
attr source tbFailedDueToInterference
attr title "Number of failed TBs due to interference, vector"
vector 183 Highway.car[1].lteNic.phy tbFailedButSCIReceived:vector ETV
attr source tbFailedButSCIReceived
attr title "Number of failed TBs with a decoded SCI, vector"
vector 184 Highway.car[1].lteNic.phy tbFailedHalfDuplex:vector ETV
attr source tbFailedHalfDuplex
attr title "Number of failed TBs due to Half Duplex, vector"
vector 185 Highway.car[1].lteNic.phy periodic:vector ETV
attr source periodic
attr title "Identifies traffic as periodic or aperiodic, vector"
vector 186 Highway.car[1].lteNic.phy tbFailedDueToPropIgnoreSCI:vector ETV
attr source tbFailedDueToPropIgnoreSCI
attr title "Number of failed TBs due to propogation, vector"
vector 187 Highway.car[1].lteNic.phy tbFailedDueToInterferenceIgnoreSCI:vector ETV
attr source tbFailedDueToInterferenceIgnoreSCI
attr title "Number of failed TBs due to interference, vector"
vector 188 Highway.car[1].lteNic.phy tbDecodedIgnoreSCI:vector ETV
attr source tbDecodedIgnoreSCI
attr title "Number of failed TBs due to interference, vector"
vector 189 Highway.car[1].lteNic.mac receivedPacketFromLowerLayer:vector(packetBytes) ETV
attr interpolationmode none
attr source receivedPacketFromLowerLayer
vector 190 Highway.car[2].lteNic.phy txRxDistanceSCI:vector ETV
attr source txRxDistanceSCI
attr title "Distance between transmitter and receiver, vector"
vector 191 Highway.car[2].lteNic.phy senderID:vector ETV
attr source senderID
attr title "ID of node who sent message, vector"
vector 192 Highway.car[2].lteNic.phy sciReceived:vector ETV
attr source sciReceived
attr title "Number of received sci, vector"
vector 193 Highway.car[2].lteNic.phy sciUnsensed:vector ETV
attr source sciUnsensed
attr title "Number of failed SCIs due to RSRP below threshold, vector"
vector 194 Highway.car[2].lteNic.phy sciDecoded:vector ETV
attr source sciDecoded
attr title "Number of sci successfully decoded, vector"
vector 195 Highway.car[2].lteNic.phy sciFailedDueToProp:vector ETV
attr source sciFailedDueToProp
attr title "Number of failed SCIs due to propogation, vector"
vector 196 Highway.car[2].lteNic.phy sciFailedDueToInterference:vector ETV
attr source sciFailedDueToInterference
attr title "Number of failed SCIs due to interference, vector"
vector 197 Highway.car[2].lteNic.phy sciFailedHalfDuplex:vector ETV
attr source sciFailedHalfDuplex
attr title "Number of failed SCIs due to Half Duplex, vector"
vector 198 Highway.car[2].lteNic.phy subchannelReceived:vector ETV
attr source subchannelReceived
attr title "Initial Subchannel on which packet is received, vector"
vector 199 Highway.car[2].lteNic.phy subchannelsUsed:vector ETV
attr source subchannelsUsed
attr title "Number of Subchannels used for the received packet, vector"
vector 200 Highway.car[2].lteNic.phy txRxDistanceTB:vector ETV
attr source txRxDistanceTB
attr title "Distance between transmitter and receiver, vector"
vector 201 Highway.car[2].lteNic.phy tbReceived:vector ETV
attr source tbReceived
attr title "Number of tb received, vector"
vector 202 Highway.car[2].lteNic.phy tbDecoded:vector ETV
attr source tbDecoded
attr title "Number of tb Decoded, vector"
vector 203 Highway.car[2].lteNic.phy tbFailedDueToNoSCI:vector ETV
attr source tbFailedDueToNoSCI
attr title "Number of tb not decoded due to no SCI, vector"
vector 204 Highway.car[2].lteNic.phy tbFailedDueToProp:vector ETV
attr source tbFailedDueToProp
attr title "Number of failed TBs due to propogation, vector"
vector 205 Highway.car[2].lteNic.phy tbFailedDueToInterference:vector ETV
attr source tbFailedDueToInterference
attr title "Number of failed TBs due to interference, vector"
vector 206 Highway.car[2].lteNic.phy tbFailedButSCIReceived:vector ETV
attr source tbFailedButSCIReceived
attr title "Number of failed TBs with a decoded SCI, vector"
vector 207 Highway.car[2].lteNic.phy tbFailedHalfDuplex:vector ETV
attr source tbFailedHalfDuplex
attr title "Number of failed TBs due to Half Duplex, vector"
vector 208 Highway.car[2].lteNic.phy periodic:vector ETV
attr source periodic
attr title "Identifies traffic as periodic or aperiodic, vector"
vector 209 Highway.car[2].lteNic.phy tbFailedDueToPropIgnoreSCI:vector ETV
attr source tbFailedDueToPropIgnoreSCI
attr title "Number of failed TBs due to propogation, vector"
vector 210 Highway.car[2].lteNic.phy tbFailedDueToInterferenceIgnoreSCI:vector ETV
attr source tbFailedDueToInterferenceIgnoreSCI
attr title "Number of failed TBs due to interference, vector"
vector 211 Highway.car[2].lteNic.phy tbDecodedIgnoreSCI:vector ETV
attr source tbDecodedIgnoreSCI
attr title "Number of failed TBs due to interference, vector"
vector 212 Highway.car[2].lteNic.mac receivedPacketFromLowerLayer:vector(packetBytes) ETV
attr interpolationmode none
attr source receivedPacketFromLowerLayer
vector 213 Highway.car[3].lteNic.phy txRxDistanceSCI:vector ETV
attr source txRxDistanceSCI
attr title "Distance between transmitter and receiver, vector"
vector 214 Highway.car[3].lteNic.phy senderID:vector ETV
attr source senderID
attr title "ID of node who sent message, vector"
vector 215 Highway.car[3].lteNic.phy sciReceived:vector ETV
attr source sciReceived
attr title "Number of received sci, vector"
vector 216 Highway.car[3].lteNic.phy sciUnsensed:vector ETV
attr source sciUnsensed
attr title "Number of failed SCIs due to RSRP below threshold, vector"
vector 217 Highway.car[3].lteNic.phy sciDecoded:vector ETV
attr source sciDecoded
attr title "Number of sci successfully decoded, vector"
vector 218 Highway.car[3].lteNic.phy sciFailedDueToProp:vector ETV
attr source sciFailedDueToProp
attr title "Number of failed SCIs due to propogation, vector"
vector 219 Highway.car[3].lteNic.phy sciFailedDueToInterference:vector ETV
attr source sciFailedDueToInterference
attr title "Number of failed SCIs due to interference, vector"
vector 220 Highway.car[3].lteNic.phy sciFailedHalfDuplex:vector ETV
attr source sciFailedHalfDuplex
attr title "Number of failed SCIs due to Half Duplex, vector"
vector 221 Highway.car[3].lteNic.phy subchannelReceived:vector ETV
attr source subchannelReceived
attr title "Initial Subchannel on which packet is received, vector"
vector 222 Highway.car[3].lteNic.phy subchannelsUsed:vector ETV
attr source subchannelsUsed
attr title "Number of Subchannels used for the received packet, vector"
vector 223 Highway.car[3].lteNic.phy txRxDistanceTB:vector ETV
attr source txRxDistanceTB
attr title "Distance between transmitter and receiver, vector"
vector 224 Highway.car[3].lteNic.phy tbReceived:vector ETV
attr source tbReceived
attr title "Number of tb received, vector"
vector 225 Highway.car[3].lteNic.phy tbDecoded:vector ETV
attr source tbDecoded
attr title "Number of tb Decoded, vector"
vector 226 Highway.car[3].lteNic.phy tbFailedDueToNoSCI:vector ETV
attr source tbFailedDueToNoSCI
attr title "Number of tb not decoded due to no SCI, vector"
vector 227 Highway.car[3].lteNic.phy tbFailedDueToProp:vector ETV
attr source tbFailedDueToProp
attr title "Number of failed TBs due to propogation, vector"
vector 228 Highway.car[3].lteNic.phy tbFailedDueToInterference:vector ETV
attr source tbFailedDueToInterference
attr title "Number of failed TBs due to interference, vector"
vector 229 Highway.car[3].lteNic.phy tbFailedButSCIReceived:vector ETV
attr source tbFailedButSCIReceived
attr title "Number of failed TBs with a decoded SCI, vector"
vector 230 Highway.car[3].lteNic.phy tbFailedHalfDuplex:vector ETV
attr source tbFailedHalfDuplex
attr title "Number of failed TBs due to Half Duplex, vector"
vector 231 Highway.car[3].lteNic.phy periodic:vector ETV
attr source periodic
attr title "Identifies traffic as periodic or aperiodic, vector"
vector 232 Highway.car[3].lteNic.phy tbFailedDueToPropIgnoreSCI:vector ETV
attr source tbFailedDueToPropIgnoreSCI
attr title "Number of failed TBs due to propogation, vector"
vector 233 Highway.car[3].lteNic.phy tbFailedDueToInterferenceIgnoreSCI:vector ETV
attr source tbFailedDueToInterferenceIgnoreSCI
attr title "Number of failed TBs due to interference, vector"
vector 234 Highway.car[3].lteNic.phy tbDecodedIgnoreSCI:vector ETV
attr source tbDecodedIgnoreSCI
attr title "Number of failed TBs due to interference, vector"
vector 235 Highway.car[3].lteNic.mac receivedPacketFromLowerLayer:vector(packetBytes) ETV
attr interpolationmode none
attr source receivedPacketFromLowerLayer
vector 236 Highway.car[4].lteNic.phy txRxDistanceSCI:vector ETV
attr source txRxDistanceSCI
attr title "Distance between transmitter and receiver, vector"
vector 237 Highway.car[4].lteNic.phy senderID:vector ETV
attr source senderID
attr title "ID of node who sent message, vector"
vector 238 Highway.car[4].lteNic.phy sciReceived:vector ETV
attr source sciReceived
attr title "Number of received sci, vector"
vector 239 Highway.car[4].lteNic.phy sciUnsensed:vector ETV
attr source sciUnsensed
attr title "Number of failed SCIs due to RSRP below threshold, vector"
vector 240 Highway.car[4].lteNic.phy sciDecoded:vector ETV
attr source sciDecoded
attr title "Number of sci successfully decoded, vector"
vector 241 Highway.car[4].lteNic.phy sciFailedDueToProp:vector ETV
attr source sciFailedDueToProp
attr title "Number of failed SCIs due to propogation, vector"
vector 242 Highway.car[4].lteNic.phy sciFailedDueToInterference:vector ETV
attr source sciFailedDueToInterference
attr title "Number of failed SCIs due to interference, vector"
vector 243 Highway.car[4].lteNic.phy sciFailedHalfDuplex:vector ETV
attr source sciFailedHalfDuplex
attr title "Number of failed SCIs due to Half Duplex, vector"
vector 244 Highway.car[4].lteNic.phy subchannelReceived:vector ETV
attr source subchannelReceived
attr title "Initial Subchannel on which packet is received, vector"
vector 245 Highway.car[4].lteNic.phy subchannelsUsed:vector ETV
attr source subchannelsUsed
attr title "Number of Subchannels used for the received packet, vector"
vector 246 Highway.car[4].lteNic.phy txRxDistanceTB:vector ETV
attr source txRxDistanceTB
attr title "Distance between transmitter and receiver, vector"
vector 247 Highway.car[4].lteNic.phy tbReceived:vector ETV
attr source tbReceived
attr title "Number of tb received, vector"
vector 248 Highway.car[4].lteNic.phy tbDecoded:vector ETV
attr source tbDecoded
attr title "Number of tb Decoded, vector"
vector 249 Highway.car[4].lteNic.phy tbFailedDueToNoSCI:vector ETV
attr source tbFailedDueToNoSCI
attr title "Number of tb not decoded due to no SCI, vector"
vector 250 Highway.car[4].lteNic.phy tbFailedDueToProp:vector ETV
attr source tbFailedDueToProp
attr title "Number of failed TBs due to propogation, vector"
vector 251 Highway.car[4].lteNic.phy tbFailedDueToInterference:vector ETV
attr source tbFailedDueToInterference
attr title "Number of failed TBs due to interference, vector"
vector 252 Highway.car[4].lteNic.phy tbFailedButSCIReceived:vector ETV
attr source tbFailedButSCIReceived
attr title "Number of failed TBs with a decoded SCI, vector"
vector 253 Highway.car[4].lteNic.phy tbFailedHalfDuplex:vector ETV
attr source tbFailedHalfDuplex
attr title "Number of failed TBs due to Half Duplex, vector"
vector 254 Highway.car[4].lteNic.phy periodic:vector ETV
attr source periodic
attr title "Identifies traffic as periodic or aperiodic, vector"
vector 255 Highway.car[4].lteNic.phy tbFailedDueToPropIgnoreSCI:vector ETV
attr source tbFailedDueToPropIgnoreSCI
attr title "Number of failed TBs due to propogation, vector"
vector 256 Highway.car[4].lteNic.phy tbFailedDueToInterferenceIgnoreSCI:vector ETV
attr source tbFailedDueToInterferenceIgnoreSCI
attr title "Number of failed TBs due to interference, vector"
vector 257 Highway.car[4].lteNic.phy tbDecodedIgnoreSCI:vector ETV
attr source tbDecodedIgnoreSCI
attr title "Number of failed TBs due to interference, vector"
vector 258 Highway.car[4].lteNic.mac receivedPacketFromLowerLayer:vector(packetBytes) ETV
attr interpolationmode none
attr source receivedPacketFromLowerLayer
vector 259 Highway.car[5].lteNic.phy txRxDistanceSCI:vector ETV
attr source txRxDistanceSCI
attr title "Distance between transmitter and receiver, vector"
vector 260 Highway.car[5].lteNic.phy senderID:vector ETV
attr source senderID
attr title "ID of node who sent message, vector"
vector 261 Highway.car[5].lteNic.phy sciReceived:vector ETV
attr source sciReceived
attr title "Number of received sci, vector"
vector 262 Highway.car[5].lteNic.phy sciUnsensed:vector ETV
attr source sciUnsensed
attr title "Number of failed SCIs due to RSRP below threshold, vector"
vector 263 Highway.car[5].lteNic.phy sciDecoded:vector ETV
attr source sciDecoded
attr title "Number of sci successfully decoded, vector"
vector 264 Highway.car[5].lteNic.phy sciFailedDueToProp:vector ETV
attr source sciFailedDueToProp
attr title "Number of failed SCIs due to propogation, vector"
vector 265 Highway.car[5].lteNic.phy sciFailedDueToInterference:vector ETV
attr source sciFailedDueToInterference
attr title "Number of failed SCIs due to interference, vector"
vector 266 Highway.car[5].lteNic.phy sciFailedHalfDuplex:vector ETV
attr source sciFailedHalfDuplex
attr title "Number of failed SCIs due to Half Duplex, vector"
vector 267 Highway.car[5].lteNic.phy subchannelReceived:vector ETV
attr source subchannelReceived
attr title "Initial Subchannel on which packet is received, vector"
vector 268 Highway.car[5].lteNic.phy subchannelsUsed:vector ETV
attr source subchannelsUsed
attr title "Number of Subchannels used for the received packet, vector"
vector 269 Highway.car[5].lteNic.phy txRxDistanceTB:vector ETV
attr source txRxDistanceTB
attr title "Distance between transmitter and receiver, vector"
vector 270 Highway.car[5].lteNic.phy tbReceived:vector ETV
attr source tbReceived
attr title "Number of tb received, vector"
vector 271 Highway.car[5].lteNic.phy tbDecoded:vector ETV
attr source tbDecoded
attr title "Number of tb Decoded, vector"
vector 272 Highway.car[5].lteNic.phy tbFailedDueToNoSCI:vector ETV
attr source tbFailedDueToNoSCI
attr title "Number of tb not decoded due to no SCI, vector"
vector 273 Highway.car[5].lteNic.phy tbFailedDueToProp:vector ETV
attr source tbFailedDueToProp
attr title "Number of failed TBs due to propogation, vector"
vector 274 Highway.car[5].lteNic.phy tbFailedDueToInterference:vector ETV
attr source tbFailedDueToInterference
attr title "Number of failed TBs due to interference, vector"
vector 275 Highway.car[5].lteNic.phy tbFailedButSCIReceived:vector ETV
attr source tbFailedButSCIReceived
attr title "Number of failed TBs with a decoded SCI, vector"
vector 276 Highway.car[5].lteNic.phy tbFailedHalfDuplex:vector ETV
attr source tbFailedHalfDuplex
attr title "Number of failed TBs due to Half Duplex, vector"
vector 277 Highway.car[5].lteNic.phy periodic:vector ETV
attr source periodic
attr title "Identifies traffic as periodic or aperiodic, vector"
vector 278 Highway.car[5].lteNic.phy tbFailedDueToPropIgnoreSCI:vector ETV
attr source tbFailedDueToPropIgnoreSCI
attr title "Number of failed TBs due to propogation, vector"
vector 279 Highway.car[5].lteNic.phy tbFailedDueToInterferenceIgnoreSCI:vector ETV
attr source tbFailedDueToInterferenceIgnoreSCI
attr title "Number of failed TBs due to interference, vector"
vector 280 Highway.car[5].lteNic.phy tbDecodedIgnoreSCI:vector ETV
attr source tbDecodedIgnoreSCI
attr title "Number of failed TBs due to interference, vector"
vector 281 Highway.car[5].lteNic.mac receivedPacketFromLowerLayer:vector(packetBytes) ETV
attr interpolationmode none
attr source receivedPacketFromLowerLayer
vector 282 Highway.car[6].lteNic.phy txRxDistanceSCI:vector ETV
attr source txRxDistanceSCI
attr title "Distance between transmitter and receiver, vector"
vector 283 Highway.car[6].lteNic.phy senderID:vector ETV
attr source senderID
attr title "ID of node who sent message, vector"
vector 284 Highway.car[6].lteNic.phy sciReceived:vector ETV
attr source sciReceived
attr title "Number of received sci, vector"
vector 285 Highway.car[6].lteNic.phy sciUnsensed:vector ETV
attr source sciUnsensed
attr title "Number of failed SCIs due to RSRP below threshold, vector"
vector 286 Highway.car[6].lteNic.phy sciDecoded:vector ETV
attr source sciDecoded
attr title "Number of sci successfully decoded, vector"
vector 287 Highway.car[6].lteNic.phy sciFailedDueToProp:vector ETV
attr source sciFailedDueToProp
attr title "Number of failed SCIs due to propogation, vector"
vector 288 Highway.car[6].lteNic.phy sciFailedDueToInterference:vector ETV
attr source sciFailedDueToInterference
attr title "Number of failed SCIs due to interference, vector"
vector 289 Highway.car[6].lteNic.phy sciFailedHalfDuplex:vector ETV
attr source sciFailedHalfDuplex
attr title "Number of failed SCIs due to Half Duplex, vector"
vector 290 Highway.car[6].lteNic.phy subchannelReceived:vector ETV
attr source subchannelReceived
attr title "Initial Subchannel on which packet is received, vector"
vector 291 Highway.car[6].lteNic.phy subchannelsUsed:vector ETV
attr source subchannelsUsed
attr title "Number of Subchannels used for the received packet, vector"
vector 292 Highway.car[6].lteNic.phy txRxDistanceTB:vector ETV
attr source txRxDistanceTB
attr title "Distance between transmitter and receiver, vector"
vector 293 Highway.car[6].lteNic.phy tbReceived:vector ETV
attr source tbReceived
attr title "Number of tb received, vector"
vector 294 Highway.car[6].lteNic.phy tbDecoded:vector ETV
attr source tbDecoded
attr title "Number of tb Decoded, vector"
vector 295 Highway.car[6].lteNic.phy tbFailedDueToNoSCI:vector ETV
attr source tbFailedDueToNoSCI
attr title "Number of tb not decoded due to no SCI, vector"
vector 296 Highway.car[6].lteNic.phy tbFailedDueToProp:vector ETV
attr source tbFailedDueToProp
attr title "Number of failed TBs due to propogation, vector"
vector 297 Highway.car[6].lteNic.phy tbFailedDueToInterference:vector ETV
attr source tbFailedDueToInterference
attr title "Number of failed TBs due to interference, vector"
vector 298 Highway.car[6].lteNic.phy tbFailedButSCIReceived:vector ETV
attr source tbFailedButSCIReceived
attr title "Number of failed TBs with a decoded SCI, vector"
vector 299 Highway.car[6].lteNic.phy tbFailedHalfDuplex:vector ETV
attr source tbFailedHalfDuplex
attr title "Number of failed TBs due to Half Duplex, vector"
vector 300 Highway.car[6].lteNic.phy periodic:vector ETV
attr source periodic
attr title "Identifies traffic as periodic or aperiodic, vector"
vector 301 Highway.car[6].lteNic.phy tbFailedDueToPropIgnoreSCI:vector ETV
attr source tbFailedDueToPropIgnoreSCI
attr title "Number of failed TBs due to propogation, vector"
vector 302 Highway.car[6].lteNic.phy tbFailedDueToInterferenceIgnoreSCI:vector ETV
attr source tbFailedDueToInterferenceIgnoreSCI
attr title "Number of failed TBs due to interference, vector"
vector 303 Highway.car[6].lteNic.phy tbDecodedIgnoreSCI:vector ETV
attr source tbDecodedIgnoreSCI
attr title "Number of failed TBs due to interference, vector"
vector 304 Highway.car[6].lteNic.mac receivedPacketFromLowerLayer:vector(packetBytes) ETV
attr interpolationmode none
attr source receivedPacketFromLowerLayer
vector 305 Highway.car[7].lteNic.phy txRxDistanceSCI:vector ETV
attr source txRxDistanceSCI
attr title "Distance between transmitter and receiver, vector"
vector 306 Highway.car[7].lteNic.phy senderID:vector ETV
attr source senderID
attr title "ID of node who sent message, vector"
vector 307 Highway.car[7].lteNic.phy sciReceived:vector ETV
attr source sciReceived
attr title "Number of received sci, vector"
vector 308 Highway.car[7].lteNic.phy sciUnsensed:vector ETV
attr source sciUnsensed
attr title "Number of failed SCIs due to RSRP below threshold, vector"
vector 309 Highway.car[7].lteNic.phy sciDecoded:vector ETV
attr source sciDecoded
attr title "Number of sci successfully decoded, vector"
vector 310 Highway.car[7].lteNic.phy sciFailedDueToProp:vector ETV
attr source sciFailedDueToProp
attr title "Number of failed SCIs due to propogation, vector"
vector 311 Highway.car[7].lteNic.phy sciFailedDueToInterference:vector ETV
attr source sciFailedDueToInterference
attr title "Number of failed SCIs due to interference, vector"
vector 312 Highway.car[7].lteNic.phy sciFailedHalfDuplex:vector ETV
attr source sciFailedHalfDuplex
attr title "Number of failed SCIs due to Half Duplex, vector"
vector 313 Highway.car[7].lteNic.phy subchannelReceived:vector ETV
attr source subchannelReceived
attr title "Initial Subchannel on which packet is received, vector"
vector 314 Highway.car[7].lteNic.phy subchannelsUsed:vector ETV
attr source subchannelsUsed
attr title "Number of Subchannels used for the received packet, vector"
vector 315 Highway.car[7].lteNic.phy txRxDistanceTB:vector ETV
attr source txRxDistanceTB
attr title "Distance between transmitter and receiver, vector"
vector 316 Highway.car[7].lteNic.phy tbReceived:vector ETV
attr source tbReceived
attr title "Number of tb received, vector"
vector 317 Highway.car[7].lteNic.phy tbDecoded:vector ETV
attr source tbDecoded
attr title "Number of tb Decoded, vector"
vector 318 Highway.car[7].lteNic.phy tbFailedDueToNoSCI:vector ETV
attr source tbFailedDueToNoSCI
attr title "Number of tb not decoded due to no SCI, vector"
vector 319 Highway.car[7].lteNic.phy tbFailedDueToProp:vector ETV
attr source tbFailedDueToProp
attr title "Number of failed TBs due to propogation, vector"
vector 320 Highway.car[7].lteNic.phy tbFailedDueToInterference:vector ETV
attr source tbFailedDueToInterference
attr title "Number of failed TBs due to interference, vector"
vector 321 Highway.car[7].lteNic.phy tbFailedButSCIReceived:vector ETV
attr source tbFailedButSCIReceived
attr title "Number of failed TBs with a decoded SCI, vector"
vector 322 Highway.car[7].lteNic.phy tbFailedHalfDuplex:vector ETV
attr source tbFailedHalfDuplex
attr title "Number of failed TBs due to Half Duplex, vector"
vector 323 Highway.car[7].lteNic.phy periodic:vector ETV
attr source periodic
attr title "Identifies traffic as periodic or aperiodic, vector"
vector 324 Highway.car[7].lteNic.phy tbFailedDueToPropIgnoreSCI:vector ETV
attr source tbFailedDueToPropIgnoreSCI
attr title "Number of failed TBs due to propogation, vector"
vector 325 Highway.car[7].lteNic.phy tbFailedDueToInterferenceIgnoreSCI:vector ETV
attr source tbFailedDueToInterferenceIgnoreSCI
attr title "Number of failed TBs due to interference, vector"
vector 326 Highway.car[7].lteNic.phy tbDecodedIgnoreSCI:vector ETV
attr source tbDecodedIgnoreSCI
attr title "Number of failed TBs due to interference, vector"
vector 327 Highway.car[7].lteNic.mac receivedPacketFromLowerLayer:vector(packetBytes) ETV
attr interpolationmode none
attr source receivedPacketFromLowerLayer
vector 328 Highway.car[8].lteNic.phy txRxDistanceSCI:vector ETV
attr source txRxDistanceSCI
attr title "Distance between transmitter and receiver, vector"
vector 329 Highway.car[8].lteNic.phy senderID:vector ETV
attr source senderID
attr title "ID of node who sent message, vector"
vector 330 Highway.car[8].lteNic.phy sciReceived:vector ETV
attr source sciReceived
attr title "Number of received sci, vector"
vector 331 Highway.car[8].lteNic.phy sciUnsensed:vector ETV
attr source sciUnsensed
attr title "Number of failed SCIs due to RSRP below threshold, vector"
vector 332 Highway.car[8].lteNic.phy sciDecoded:vector ETV
attr source sciDecoded
attr title "Number of sci successfully decoded, vector"
vector 333 Highway.car[8].lteNic.phy sciFailedDueToProp:vector ETV
attr source sciFailedDueToProp
attr title "Number of failed SCIs due to propogation, vector"
vector 334 Highway.car[8].lteNic.phy sciFailedDueToInterference:vector ETV
attr source sciFailedDueToInterference
attr title "Number of failed SCIs due to interference, vector"
vector 335 Highway.car[8].lteNic.phy sciFailedHalfDuplex:vector ETV
attr source sciFailedHalfDuplex
attr title "Number of failed SCIs due to Half Duplex, vector"
vector 336 Highway.car[8].lteNic.phy subchannelReceived:vector ETV
attr source subchannelReceived
attr title "Initial Subchannel on which packet is received, vector"
vector 337 Highway.car[8].lteNic.phy subchannelsUsed:vector ETV
attr source subchannelsUsed
attr title "Number of Subchannels used for the received packet, vector"
vector 338 Highway.car[8].lteNic.phy txRxDistanceTB:vector ETV
attr source txRxDistanceTB
attr title "Distance between transmitter and receiver, vector"
vector 339 Highway.car[8].lteNic.phy tbReceived:vector ETV
attr source tbReceived
attr title "Number of tb received, vector"
vector 340 Highway.car[8].lteNic.phy tbDecoded:vector ETV
attr source tbDecoded
attr title "Number of tb Decoded, vector"
vector 341 Highway.car[8].lteNic.phy tbFailedDueToNoSCI:vector ETV
attr source tbFailedDueToNoSCI
attr title "Number of tb not decoded due to no SCI, vector"
vector 342 Highway.car[8].lteNic.phy tbFailedDueToProp:vector ETV
attr source tbFailedDueToProp
attr title "Number of failed TBs due to propogation, vector"
vector 343 Highway.car[8].lteNic.phy tbFailedDueToInterference:vector ETV
attr source tbFailedDueToInterference
attr title "Number of failed TBs due to interference, vector"
vector 344 Highway.car[8].lteNic.phy tbFailedButSCIReceived:vector ETV
attr source tbFailedButSCIReceived
attr title "Number of failed TBs with a decoded SCI, vector"
vector 345 Highway.car[8].lteNic.phy tbFailedHalfDuplex:vector ETV
attr source tbFailedHalfDuplex
attr title "Number of failed TBs due to Half Duplex, vector"
vector 346 Highway.car[8].lteNic.phy periodic:vector ETV
attr source periodic
attr title "Identifies traffic as periodic or aperiodic, vector"
vector 347 Highway.car[8].lteNic.phy tbFailedDueToPropIgnoreSCI:vector ETV
attr source tbFailedDueToPropIgnoreSCI
attr title "Number of failed TBs due to propogation, vector"
vector 348 Highway.car[8].lteNic.phy tbFailedDueToInterferenceIgnoreSCI:vector ETV
attr source tbFailedDueToInterferenceIgnoreSCI
attr title "Number of failed TBs due to interference, vector"
vector 349 Highway.car[8].lteNic.phy tbDecodedIgnoreSCI:vector ETV
attr source tbDecodedIgnoreSCI
attr title "Number of failed TBs due to interference, vector"
vector 350 Highway.car[8].lteNic.mac receivedPacketFromLowerLayer:vector(packetBytes) ETV
attr interpolationmode none
attr source receivedPacketFromLowerLayer
vector 351 Highway.car[9].lteNic.phy txRxDistanceSCI:vector ETV
attr source txRxDistanceSCI
attr title "Distance between transmitter and receiver, vector"
vector 352 Highway.car[9].lteNic.phy senderID:vector ETV
attr source senderID
attr title "ID of node who sent message, vector"
vector 353 Highway.car[9].lteNic.phy sciReceived:vector ETV
attr source sciReceived
attr title "Number of received sci, vector"
vector 354 Highway.car[9].lteNic.phy sciUnsensed:vector ETV
attr source sciUnsensed
attr title "Number of failed SCIs due to RSRP below threshold, vector"
vector 355 Highway.car[9].lteNic.phy sciDecoded:vector ETV
attr source sciDecoded
attr title "Number of sci successfully decoded, vector"
vector 356 Highway.car[9].lteNic.phy sciFailedDueToProp:vector ETV
attr source sciFailedDueToProp
attr title "Number of failed SCIs due to propogation, vector"
vector 357 Highway.car[9].lteNic.phy sciFailedDueToInterference:vector ETV
attr source sciFailedDueToInterference
attr title "Number of failed SCIs due to interference, vector"
vector 358 Highway.car[9].lteNic.phy sciFailedHalfDuplex:vector ETV
attr source sciFailedHalfDuplex
attr title "Number of failed SCIs due to Half Duplex, vector"
vector 359 Highway.car[9].lteNic.phy subchannelReceived:vector ETV
attr source subchannelReceived
attr title "Initial Subchannel on which packet is received, vector"
vector 360 Highway.car[9].lteNic.phy subchannelsUsed:vector ETV
attr source subchannelsUsed
attr title "Number of Subchannels used for the received packet, vector"
vector 361 Highway.car[9].lteNic.phy txRxDistanceTB:vector ETV
attr source txRxDistanceTB
attr title "Distance between transmitter and receiver, vector"
vector 362 Highway.car[9].lteNic.phy tbReceived:vector ETV
attr source tbReceived
attr title "Number of tb received, vector"
vector 363 Highway.car[9].lteNic.phy tbDecoded:vector ETV
attr source tbDecoded
attr title "Number of tb Decoded, vector"
vector 364 Highway.car[9].lteNic.phy tbFailedDueToNoSCI:vector ETV
attr source tbFailedDueToNoSCI
attr title "Number of tb not decoded due to no SCI, vector"
vector 365 Highway.car[9].lteNic.phy tbFailedDueToProp:vector ETV
attr source tbFailedDueToProp
attr title "Number of failed TBs due to propogation, vector"
vector 366 Highway.car[9].lteNic.phy tbFailedDueToInterference:vector ETV
attr source tbFailedDueToInterference
attr title "Number of failed TBs due to interference, vector"
vector 367 Highway.car[9].lteNic.phy tbFailedButSCIReceived:vector ETV
attr source tbFailedButSCIReceived
attr title "Number of failed TBs with a decoded SCI, vector"
vector 368 Highway.car[9].lteNic.phy tbFailedHalfDuplex:vector ETV
attr source tbFailedHalfDuplex
attr title "Number of failed TBs due to Half Duplex, vector"
vector 369 Highway.car[9].lteNic.phy periodic:vector ETV
attr source periodic
attr title "Identifies traffic as periodic or aperiodic, vector"
vector 370 Highway.car[9].lteNic.phy tbFailedDueToPropIgnoreSCI:vector ETV
attr source tbFailedDueToPropIgnoreSCI
attr title "Number of failed TBs due to propogation, vector"
vector 371 Highway.car[9].lteNic.phy tbFailedDueToInterferenceIgnoreSCI:vector ETV
attr source tbFailedDueToInterferenceIgnoreSCI
attr title "Number of failed TBs due to interference, vector"
vector 372 Highway.car[9].lteNic.phy tbDecodedIgnoreSCI:vector ETV
attr source tbDecodedIgnoreSCI
attr title "Number of failed TBs due to interference, vector"
vector 373 Highway.car[9].lteNic.mac receivedPacketFromLowerLayer:vector(packetBytes) ETV
attr interpolationmode none
attr source receivedPacketFromLowerLayer
vector 374 Highway.car[10].lteNic.phy txRxDistanceSCI:vector ETV
attr source txRxDistanceSCI
attr title "Distance between transmitter and receiver, vector"
vector 375 Highway.car[10].lteNic.phy senderID:vector ETV
attr source senderID
attr title "ID of node who sent message, vector"
vector 376 Highway.car[10].lteNic.phy sciReceived:vector ETV
attr source sciReceived
attr title "Number of received sci, vector"
vector 377 Highway.car[10].lteNic.phy sciUnsensed:vector ETV
attr source sciUnsensed
attr title "Number of failed SCIs due to RSRP below threshold, vector"
vector 378 Highway.car[10].lteNic.phy sciDecoded:vector ETV
attr source sciDecoded
attr title "Number of sci successfully decoded, vector"
vector 379 Highway.car[10].lteNic.phy sciFailedDueToProp:vector ETV
attr source sciFailedDueToProp
attr title "Number of failed SCIs due to propogation, vector"
vector 380 Highway.car[10].lteNic.phy sciFailedDueToInterference:vector ETV
attr source sciFailedDueToInterference
attr title "Number of failed SCIs due to interference, vector"
vector 381 Highway.car[10].lteNic.phy sciFailedHalfDuplex:vector ETV
attr source sciFailedHalfDuplex
attr title "Number of failed SCIs due to Half Duplex, vector"
vector 382 Highway.car[10].lteNic.phy subchannelReceived:vector ETV
attr source subchannelReceived
attr title "Initial Subchannel on which packet is received, vector"
vector 383 Highway.car[10].lteNic.phy subchannelsUsed:vector ETV
attr source subchannelsUsed
attr title "Number of Subchannels used for the received packet, vector"
vector 384 Highway.car[10].lteNic.phy txRxDistanceTB:vector ETV
attr source txRxDistanceTB
attr title "Distance between transmitter and receiver, vector"
vector 385 Highway.car[10].lteNic.phy tbReceived:vector ETV
attr source tbReceived
attr title "Number of tb received, vector"
vector 386 Highway.car[10].lteNic.phy tbDecoded:vector ETV
attr source tbDecoded
attr title "Number of tb Decoded, vector"
vector 387 Highway.car[10].lteNic.phy tbFailedDueToNoSCI:vector ETV
attr source tbFailedDueToNoSCI
attr title "Number of tb not decoded due to no SCI, vector"
vector 388 Highway.car[10].lteNic.phy tbFailedDueToProp:vector ETV
attr source tbFailedDueToProp
attr title "Number of failed TBs due to propogation, vector"
vector 389 Highway.car[10].lteNic.phy tbFailedDueToInterference:vector ETV
attr source tbFailedDueToInterference
attr title "Number of failed TBs due to interference, vector"
vector 390 Highway.car[10].lteNic.phy tbFailedButSCIReceived:vector ETV
attr source tbFailedButSCIReceived
attr title "Number of failed TBs with a decoded SCI, vector"
vector 391 Highway.car[10].lteNic.phy tbFailedHalfDuplex:vector ETV
attr source tbFailedHalfDuplex
attr title "Number of failed TBs due to Half Duplex, vector"
vector 392 Highway.car[10].lteNic.phy periodic:vector ETV
attr source periodic
attr title "Identifies traffic as periodic or aperiodic, vector"
vector 393 Highway.car[10].lteNic.phy tbFailedDueToPropIgnoreSCI:vector ETV
attr source tbFailedDueToPropIgnoreSCI
attr title "Number of failed TBs due to propogation, vector"
vector 394 Highway.car[10].lteNic.phy tbFailedDueToInterferenceIgnoreSCI:vector ETV
attr source tbFailedDueToInterferenceIgnoreSCI
attr title "Number of failed TBs due to interference, vector"
vector 395 Highway.car[10].lteNic.phy tbDecodedIgnoreSCI:vector ETV
attr source tbDecodedIgnoreSCI
attr title "Number of failed TBs due to interference, vector"
vector 396 Highway.car[10].lteNic.mac receivedPacketFromLowerLayer:vector(packetBytes) ETV
attr interpolationmode none
attr source receivedPacketFromLowerLayer
vector 397 Highway.car[11].lteNic.phy txRxDistanceSCI:vector ETV
attr source txRxDistanceSCI
attr title "Distance between transmitter and receiver, vector"
vector 398 Highway.car[11].lteNic.phy senderID:vector ETV
attr source senderID
attr title "ID of node who sent message, vector"
vector 399 Highway.car[11].lteNic.phy sciReceived:vector ETV
attr source sciReceived
attr title "Number of received sci, vector"
vector 400 Highway.car[11].lteNic.phy sciUnsensed:vector ETV
attr source sciUnsensed
attr title "Number of failed SCIs due to RSRP below threshold, vector"
vector 401 Highway.car[11].lteNic.phy sciDecoded:vector ETV
attr source sciDecoded
attr title "Number of sci successfully decoded, vector"
vector 402 Highway.car[11].lteNic.phy sciFailedDueToProp:vector ETV
attr source sciFailedDueToProp
attr title "Number of failed SCIs due to propogation, vector"
vector 403 Highway.car[11].lteNic.phy sciFailedDueToInterference:vector ETV
attr source sciFailedDueToInterference
attr title "Number of failed SCIs due to interference, vector"
vector 404 Highway.car[11].lteNic.phy sciFailedHalfDuplex:vector ETV
attr source sciFailedHalfDuplex
attr title "Number of failed SCIs due to Half Duplex, vector"
vector 405 Highway.car[11].lteNic.phy subchannelReceived:vector ETV
attr source subchannelReceived
attr title "Initial Subchannel on which packet is received, vector"
vector 406 Highway.car[11].lteNic.phy subchannelsUsed:vector ETV
attr source subchannelsUsed
attr title "Number of Subchannels used for the received packet, vector"
vector 407 Highway.car[11].lteNic.phy txRxDistanceTB:vector ETV
attr source txRxDistanceTB
attr title "Distance between transmitter and receiver, vector"
vector 408 Highway.car[11].lteNic.phy tbReceived:vector ETV
attr source tbReceived
attr title "Number of tb received, vector"
vector 409 Highway.car[11].lteNic.phy tbDecoded:vector ETV
attr source tbDecoded
attr title "Number of tb Decoded, vector"
vector 410 Highway.car[11].lteNic.phy tbFailedDueToNoSCI:vector ETV
attr source tbFailedDueToNoSCI
attr title "Number of tb not decoded due to no SCI, vector"
vector 411 Highway.car[11].lteNic.phy tbFailedDueToProp:vector ETV
attr source tbFailedDueToProp
attr title "Number of failed TBs due to propogation, vector"
vector 412 Highway.car[11].lteNic.phy tbFailedDueToInterference:vector ETV
attr source tbFailedDueToInterference
attr title "Number of failed TBs due to interference, vector"
vector 413 Highway.car[11].lteNic.phy tbFailedButSCIReceived:vector ETV
attr source tbFailedButSCIReceived
attr title "Number of failed TBs with a decoded SCI, vector"
vector 414 Highway.car[11].lteNic.phy tbFailedHalfDuplex:vector ETV
attr source tbFailedHalfDuplex
attr title "Number of failed TBs due to Half Duplex, vector"
vector 415 Highway.car[11].lteNic.phy periodic:vector ETV
attr source periodic
attr title "Identifies traffic as periodic or aperiodic, vector"
vector 416 Highway.car[11].lteNic.phy tbFailedDueToPropIgnoreSCI:vector ETV
attr source tbFailedDueToPropIgnoreSCI
attr title "Number of failed TBs due to propogation, vector"
vector 417 Highway.car[11].lteNic.phy tbFailedDueToInterferenceIgnoreSCI:vector ETV
attr source tbFailedDueToInterferenceIgnoreSCI
attr title "Number of failed TBs due to interference, vector"
vector 418 Highway.car[11].lteNic.phy tbDecodedIgnoreSCI:vector ETV
attr source tbDecodedIgnoreSCI
attr title "Number of failed TBs due to interference, vector"
vector 419 Highway.car[11].lteNic.mac receivedPacketFromLowerLayer:vector(packetBytes) ETV
attr interpolationmode none
attr source receivedPacketFromLowerLayer
vector 420 Highway.car[12].lteNic.phy txRxDistanceSCI:vector ETV
attr source txRxDistanceSCI
attr title "Distance between transmitter and receiver, vector"
vector 421 Highway.car[12].lteNic.phy senderID:vector ETV
attr source senderID
attr title "ID of node who sent message, vector"
vector 422 Highway.car[12].lteNic.phy sciReceived:vector ETV
attr source sciReceived
attr title "Number of received sci, vector"
vector 423 Highway.car[12].lteNic.phy sciUnsensed:vector ETV
attr source sciUnsensed
attr title "Number of failed SCIs due to RSRP below threshold, vector"
vector 424 Highway.car[12].lteNic.phy sciDecoded:vector ETV
attr source sciDecoded
attr title "Number of sci successfully decoded, vector"
vector 425 Highway.car[12].lteNic.phy sciFailedDueToProp:vector ETV
attr source sciFailedDueToProp
attr title "Number of failed SCIs due to propogation, vector"
vector 426 Highway.car[12].lteNic.phy sciFailedDueToInterference:vector ETV
attr source sciFailedDueToInterference
attr title "Number of failed SCIs due to interference, vector"
vector 427 Highway.car[12].lteNic.phy sciFailedHalfDuplex:vector ETV
attr source sciFailedHalfDuplex
attr title "Number of failed SCIs due to Half Duplex, vector"
vector 428 Highway.car[12].lteNic.phy subchannelReceived:vector ETV
attr source subchannelReceived
attr title "Initial Subchannel on which packet is received, vector"
vector 429 Highway.car[12].lteNic.phy subchannelsUsed:vector ETV
attr source subchannelsUsed
attr title "Number of Subchannels used for the received packet, vector"
vector 430 Highway.car[12].lteNic.phy txRxDistanceTB:vector ETV
attr source txRxDistanceTB
attr title "Distance between transmitter and receiver, vector"
vector 431 Highway.car[12].lteNic.phy tbReceived:vector ETV
attr source tbReceived
attr title "Number of tb received, vector"
vector 432 Highway.car[12].lteNic.phy tbDecoded:vector ETV
attr source tbDecoded
attr title "Number of tb Decoded, vector"
vector 433 Highway.car[12].lteNic.phy tbFailedDueToNoSCI:vector ETV
attr source tbFailedDueToNoSCI
attr title "Number of tb not decoded due to no SCI, vector"
vector 434 Highway.car[12].lteNic.phy tbFailedDueToProp:vector ETV
attr source tbFailedDueToProp
attr title "Number of failed TBs due to propogation, vector"
vector 435 Highway.car[12].lteNic.phy tbFailedDueToInterference:vector ETV
attr source tbFailedDueToInterference
attr title "Number of failed TBs due to interference, vector"
vector 436 Highway.car[12].lteNic.phy tbFailedButSCIReceived:vector ETV
attr source tbFailedButSCIReceived
attr title "Number of failed TBs with a decoded SCI, vector"
vector 437 Highway.car[12].lteNic.phy tbFailedHalfDuplex:vector ETV
attr source tbFailedHalfDuplex
attr title "Number of failed TBs due to Half Duplex, vector"
vector 438 Highway.car[12].lteNic.phy periodic:vector ETV
attr source periodic
attr title "Identifies traffic as periodic or aperiodic, vector"
vector 439 Highway.car[12].lteNic.phy tbFailedDueToPropIgnoreSCI:vector ETV
attr source tbFailedDueToPropIgnoreSCI
attr title "Number of failed TBs due to propogation, vector"
vector 440 Highway.car[12].lteNic.phy tbFailedDueToInterferenceIgnoreSCI:vector ETV
attr source tbFailedDueToInterferenceIgnoreSCI
attr title "Number of failed TBs due to interference, vector"
vector 441 Highway.car[12].lteNic.phy tbDecodedIgnoreSCI:vector ETV
attr source tbDecodedIgnoreSCI
attr title "Number of failed TBs due to interference, vector"
vector 442 Highway.car[12].lteNic.mac receivedPacketFromLowerLayer:vector(packetBytes) ETV
attr interpolationmode none
attr source receivedPacketFromLowerLayer
vector 443 Highway.car[13].lteNic.phy txRxDistanceSCI:vector ETV
attr source txRxDistanceSCI
attr title "Distance between transmitter and receiver, vector"
vector 444 Highway.car[13].lteNic.phy senderID:vector ETV
attr source senderID
attr title "ID of node who sent message, vector"
vector 445 Highway.car[13].lteNic.phy sciReceived:vector ETV
attr source sciReceived
attr title "Number of received sci, vector"
vector 446 Highway.car[13].lteNic.phy sciUnsensed:vector ETV
attr source sciUnsensed
attr title "Number of failed SCIs due to RSRP below threshold, vector"
vector 447 Highway.car[13].lteNic.phy sciDecoded:vector ETV
attr source sciDecoded
attr title "Number of sci successfully decoded, vector"
vector 448 Highway.car[13].lteNic.phy sciFailedDueToProp:vector ETV
attr source sciFailedDueToProp
attr title "Number of failed SCIs due to propogation, vector"
vector 449 Highway.car[13].lteNic.phy sciFailedDueToInterference:vector ETV
attr source sciFailedDueToInterference
attr title "Number of failed SCIs due to interference, vector"
vector 450 Highway.car[13].lteNic.phy sciFailedHalfDuplex:vector ETV
attr source sciFailedHalfDuplex
attr title "Number of failed SCIs due to Half Duplex, vector"
vector 451 Highway.car[13].lteNic.phy subchannelReceived:vector ETV
attr source subchannelReceived
attr title "Initial Subchannel on which packet is received, vector"
vector 452 Highway.car[13].lteNic.phy subchannelsUsed:vector ETV
attr source subchannelsUsed
attr title "Number of Subchannels used for the received packet, vector"
vector 453 Highway.car[13].lteNic.phy txRxDistanceTB:vector ETV
attr source txRxDistanceTB
attr title "Distance between transmitter and receiver, vector"
vector 454 Highway.car[13].lteNic.phy tbReceived:vector ETV
attr source tbReceived
attr title "Number of tb received, vector"
vector 455 Highway.car[13].lteNic.phy tbDecoded:vector ETV
attr source tbDecoded
attr title "Number of tb Decoded, vector"
vector 456 Highway.car[13].lteNic.phy tbFailedDueToNoSCI:vector ETV
attr source tbFailedDueToNoSCI
attr title "Number of tb not decoded due to no SCI, vector"
vector 457 Highway.car[13].lteNic.phy tbFailedDueToProp:vector ETV
attr source tbFailedDueToProp
attr title "Number of failed TBs due to propogation, vector"
vector 458 Highway.car[13].lteNic.phy tbFailedDueToInterference:vector ETV
attr source tbFailedDueToInterference
attr title "Number of failed TBs due to interference, vector"
vector 459 Highway.car[13].lteNic.phy tbFailedButSCIReceived:vector ETV
attr source tbFailedButSCIReceived
attr title "Number of failed TBs with a decoded SCI, vector"
vector 460 Highway.car[13].lteNic.phy tbFailedHalfDuplex:vector ETV
attr source tbFailedHalfDuplex
attr title "Number of failed TBs due to Half Duplex, vector"
vector 461 Highway.car[13].lteNic.phy periodic:vector ETV
attr source periodic
attr title "Identifies traffic as periodic or aperiodic, vector"
vector 462 Highway.car[13].lteNic.phy tbFailedDueToPropIgnoreSCI:vector ETV
attr source tbFailedDueToPropIgnoreSCI
attr title "Number of failed TBs due to propogation, vector"
vector 463 Highway.car[13].lteNic.phy tbFailedDueToInterferenceIgnoreSCI:vector ETV
attr source tbFailedDueToInterferenceIgnoreSCI
attr title "Number of failed TBs due to interference, vector"
vector 464 Highway.car[13].lteNic.phy tbDecodedIgnoreSCI:vector ETV
attr source tbDecodedIgnoreSCI
attr title "Number of failed TBs due to interference, vector"
vector 465 Highway.car[14].lteNic.phy txRxDistanceSCI:vector ETV
attr source txRxDistanceSCI
attr title "Distance between transmitter and receiver, vector"
vector 466 Highway.car[14].lteNic.phy senderID:vector ETV
attr source senderID
attr title "ID of node who sent message, vector"
vector 467 Highway.car[14].lteNic.phy sciReceived:vector ETV
attr source sciReceived
attr title "Number of received sci, vector"
vector 468 Highway.car[14].lteNic.phy sciUnsensed:vector ETV
attr source sciUnsensed
attr title "Number of failed SCIs due to RSRP below threshold, vector"
vector 469 Highway.car[14].lteNic.phy sciDecoded:vector ETV
attr source sciDecoded
attr title "Number of sci successfully decoded, vector"
vector 470 Highway.car[14].lteNic.phy sciFailedDueToProp:vector ETV
attr source sciFailedDueToProp
attr title "Number of failed SCIs due to propogation, vector"
vector 471 Highway.car[14].lteNic.phy sciFailedDueToInterference:vector ETV
attr source sciFailedDueToInterference
attr title "Number of failed SCIs due to interference, vector"
vector 472 Highway.car[14].lteNic.phy sciFailedHalfDuplex:vector ETV
attr source sciFailedHalfDuplex
attr title "Number of failed SCIs due to Half Duplex, vector"
vector 473 Highway.car[14].lteNic.phy subchannelReceived:vector ETV
attr source subchannelReceived
attr title "Initial Subchannel on which packet is received, vector"
vector 474 Highway.car[14].lteNic.phy subchannelsUsed:vector ETV
attr source subchannelsUsed
attr title "Number of Subchannels used for the received packet, vector"
vector 475 Highway.car[14].lteNic.phy txRxDistanceTB:vector ETV
attr source txRxDistanceTB
attr title "Distance between transmitter and receiver, vector"
vector 476 Highway.car[14].lteNic.phy tbReceived:vector ETV
attr source tbReceived
attr title "Number of tb received, vector"
vector 477 Highway.car[14].lteNic.phy tbDecoded:vector ETV
attr source tbDecoded
attr title "Number of tb Decoded, vector"
vector 478 Highway.car[14].lteNic.phy tbFailedDueToNoSCI:vector ETV
attr source tbFailedDueToNoSCI
attr title "Number of tb not decoded due to no SCI, vector"
vector 479 Highway.car[14].lteNic.phy tbFailedDueToProp:vector ETV
attr source tbFailedDueToProp
attr title "Number of failed TBs due to propogation, vector"
vector 480 Highway.car[14].lteNic.phy tbFailedDueToInterference:vector ETV
attr source tbFailedDueToInterference
attr title "Number of failed TBs due to interference, vector"
vector 481 Highway.car[14].lteNic.phy tbFailedButSCIReceived:vector ETV
attr source tbFailedButSCIReceived
attr title "Number of failed TBs with a decoded SCI, vector"
vector 482 Highway.car[14].lteNic.phy tbFailedHalfDuplex:vector ETV
attr source tbFailedHalfDuplex
attr title "Number of failed TBs due to Half Duplex, vector"
vector 483 Highway.car[14].lteNic.phy periodic:vector ETV
attr source periodic
attr title "Identifies traffic as periodic or aperiodic, vector"
vector 484 Highway.car[14].lteNic.phy tbFailedDueToPropIgnoreSCI:vector ETV
attr source tbFailedDueToPropIgnoreSCI
attr title "Number of failed TBs due to propogation, vector"
vector 485 Highway.car[14].lteNic.phy tbFailedDueToInterferenceIgnoreSCI:vector ETV
attr source tbFailedDueToInterferenceIgnoreSCI
attr title "Number of failed TBs due to interference, vector"
vector 486 Highway.car[14].lteNic.phy tbDecodedIgnoreSCI:vector ETV
attr source tbDecodedIgnoreSCI
attr title "Number of failed TBs due to interference, vector"
vector 487 Highway.car[14].lteNic.mac receivedPacketFromLowerLayer:vector(packetBytes) ETV
attr interpolationmode none
attr source receivedPacketFromLowerLayer
vector 488 Highway.car[15].lteNic.phy txRxDistanceSCI:vector ETV
attr source txRxDistanceSCI
attr title "Distance between transmitter and receiver, vector"
vector 489 Highway.car[15].lteNic.phy senderID:vector ETV
attr source senderID
attr title "ID of node who sent message, vector"
vector 490 Highway.car[15].lteNic.phy sciReceived:vector ETV
attr source sciReceived
attr title "Number of received sci, vector"
vector 491 Highway.car[15].lteNic.phy sciUnsensed:vector ETV
attr source sciUnsensed
attr title "Number of failed SCIs due to RSRP below threshold, vector"
vector 492 Highway.car[15].lteNic.phy sciDecoded:vector ETV
attr source sciDecoded
attr title "Number of sci successfully decoded, vector"
vector 493 Highway.car[15].lteNic.phy sciFailedDueToProp:vector ETV
attr source sciFailedDueToProp
attr title "Number of failed SCIs due to propogation, vector"
vector 494 Highway.car[15].lteNic.phy sciFailedDueToInterference:vector ETV
attr source sciFailedDueToInterference
attr title "Number of failed SCIs due to interference, vector"
vector 495 Highway.car[15].lteNic.phy sciFailedHalfDuplex:vector ETV
attr source sciFailedHalfDuplex
attr title "Number of failed SCIs due to Half Duplex, vector"
vector 496 Highway.car[15].lteNic.phy subchannelReceived:vector ETV
attr source subchannelReceived
attr title "Initial Subchannel on which packet is received, vector"
vector 497 Highway.car[15].lteNic.phy subchannelsUsed:vector ETV
attr source subchannelsUsed
attr title "Number of Subchannels used for the received packet, vector"
vector 498 Highway.car[15].lteNic.phy txRxDistanceTB:vector ETV
attr source txRxDistanceTB
attr title "Distance between transmitter and receiver, vector"
vector 499 Highway.car[15].lteNic.phy tbReceived:vector ETV
attr source tbReceived
attr title "Number of tb received, vector"
vector 500 Highway.car[15].lteNic.phy tbDecoded:vector ETV
attr source tbDecoded
attr title "Number of tb Decoded, vector"
vector 501 Highway.car[15].lteNic.phy tbFailedDueToNoSCI:vector ETV
attr source tbFailedDueToNoSCI
attr title "Number of tb not decoded due to no SCI, vector"
vector 502 Highway.car[15].lteNic.phy tbFailedDueToProp:vector ETV
attr source tbFailedDueToProp
attr title "Number of failed TBs due to propogation, vector"
vector 503 Highway.car[15].lteNic.phy tbFailedDueToInterference:vector ETV
attr source tbFailedDueToInterference
attr title "Number of failed TBs due to interference, vector"
vector 504 Highway.car[15].lteNic.phy tbFailedButSCIReceived:vector ETV
attr source tbFailedButSCIReceived
attr title "Number of failed TBs with a decoded SCI, vector"
vector 505 Highway.car[15].lteNic.phy tbFailedHalfDuplex:vector ETV
attr source tbFailedHalfDuplex
attr title "Number of failed TBs due to Half Duplex, vector"
vector 506 Highway.car[15].lteNic.phy periodic:vector ETV
attr source periodic
attr title "Identifies traffic as periodic or aperiodic, vector"
[...]
843	461756 90 1247 9415 500.018 500.141 4 0.01 0.034 0.085 0.002317
844	461846 76 1247 9415 500.018 500.141 4 1 1 4 4
845	461922 92 1248 9416 500.018 500.141 4 0.002 0.002 0.008 1.6e-05
846	462014 76 1248 9416 500.018 500.141 4 3 3 12 36
847	462090 76 1251 9419 500.018 500.141 4 1 1 4 4
848	462166 76 1251 9419 500.018 500.141 4 0 0 0 0
849	462242 90 1252 9420 500.018 500.141 4 0.01 0.034 0.085 0.002317
850	462332 76 1252 9420 500.018 500.141 4 1 1 4 4
851	462408 92 1253 9421 500.018 500.141 4 0.002 0.002 0.008 1.6e-05
852	462500 76 1253 9421 500.018 500.141 4 3 3 12 36
853	462576 76 1256 9424 500.018 500.141 4 1 1 4 4
854	462652 76 1256 9424 500.018 500.141 4 0 0 0 0
855	462728 90 1257 9425 500.018 500.141 4 0.01 0.034 0.085 0.002317
856	462818 76 1257 9425 500.018 500.141 4 1 1 4 4
857	462894 92 1258 9426 500.018 500.141 4 0.002 0.002 0.008 1.6e-05
858	462986 95 1258 9426 500.018 500.141 5 0 3 12 36
859	463081 76 1261 9429 500.018 500.141 4 1 1 4 4
860	463157 95 1261 9429 500.018 500.141 5 0 0 0 0
861	463252 90 1262 9430 500.018 500.141 4 0.01 0.034 0.085 0.002317
862	463342 76 1262 9430 500.018 500.141 4 1 1 4 4
863	463418 92 1263 9431 500.018 500.141 4 0.002 0.002 0.008 1.6e-05
864	463510 76 1263 9431 500.018 500.141 4 3 3 12 36
865	463586 76 1266 9434 500.018 500.141 4 1 1 4 4
866	463662 76 1266 9434 500.018 500.141 4 0 0 0 0
867	463738 90 1267 9435 500.018 500.141 4 0.01 0.034 0.085 0.002317
868	463828 76 1267 9435 500.018 500.141 4 1 1 4 4
869	463904 92 1268 9436 500.018 500.141 4 0.002 0.002 0.008 1.6e-05
870	463996 76 1268 9436 500.018 500.141 4 3 3 12 36
871	464072 76 1271 9439 500.018 500.141 4 1 1 4 4
872	464148 76 1271 9439 500.018 500.141 4 0 0 0 0
873	464224 90 1272 9440 500.018 500.141 4 0.01 0.034 0.085 0.002317
874	464314 76 1272 9440 500.018 500.141 4 1 1 4 4
875	464390 92 1273 9441 500.018 500.141 4 0.002 0.002 0.008 1.6e-05
876	464482 76 1273 9441 500.018 500.141 4 3 3 12 36
877	464558 76 1276 9444 500.018 500.141 4 1 1 4 4
878	464634 76 1276 9444 500.018 500.141 4 0 0 0 0
879	464710 90 1277 9445 500.018 500.141 4 0.01 0.034 0.085 0.002317
880	464800 76 1277 9445 500.018 500.141 4 1 1 4 4
881	464876 69 1278 7808 500.018 500.118 3 0.002 0.002 0.006 1.2e-05
882	464945 76 1278 9159 500.018 500.139 4 0 3 9 27
883	465021 57 1281 7811 500.018 500.118 3 1 1 3 3
884	465078 57 1281 7811 500.018 500.118 3 0 0 0 0
885	465135 67 1282 7812 500.018 500.118 3 0.01 0.034 0.054 0.001356
886	465202 57 1282 7812 500.018 500.118 3 1 1 3 3
887	465259 92 1283 9447 500.018 500.141 4 0.002 0.002 0.008 1.6e-05
888	465351 76 1283 9447 500.018 500.141 4 3 3 12 36
889	465427 76 1286 9450 500.018 500.141 4 1 1 4 4
890	465503 76 1286 9450 500.018 500.141 4 0 0 0 0
891	465579 90 1287 9451 500.018 500.141 4 0.01 0.034 0.085 0.002317
892	465669 76 1287 9451 500.018 500.141 4 1 1 4 4
893	465745 92 1288 9452 500.018 500.141 4 0.002 0.002 0.008 1.6e-05
894	465837 76 1291 9455 500.018 500.141 4 1 1 4 4
895	465913 90 1292 9456 500.018 500.141 4 0.01 0.034 0.085 0.002317
896	466003 76 1292 9456 500.018 500.141 4 1 1 4 4
897	466079 92 1293 9457 500.018 500.141 4 0.002 0.002 0.008 1.6e-05
898	466171 76 1293 9457 500.018 500.141 4 3 3 12 36
899	466247 76 1296 9460 500.018 500.141 4 1 1 4 4
900	466323 76 1296 9460 500.018 500.141 4 0 0 0 0
901	466399 90 1297 9461 500.018 500.141 4 0.01 0.034 0.085 0.002317
902	466489 76 1297 9461 500.018 500.141 4 1 1 4 4
903	466565 92 1298 9462 500.018 500.141 4 0.002 0.002 0.008 1.6e-05
904	466657 76 1298 9462 500.018 500.141 4 3 3 12 36
905	466733 76 1301 9465 500.018 500.141 4 1 1 4 4
906	466809 76 1301 9465 500.018 500.141 4 0 0 0 0
907	466885 90 1302 9466 500.018 500.141 4 0.01 0.034 0.085 0.002317
908	466975 76 1302 9466 500.018 500.141 4 1 1 4 4
909	467051 92 1303 9467 500.018 500.141 4 0.002 0.002 0.008 1.6e-05
910	467143 96 1303 10167 500.018 500.152 5 0 3 12 36
911	467239 76 1306 9470 500.018 500.141 4 1 1 4 4
912	467315 96 1306 10170 500.018 500.152 5 0 0 0 0
913	467411 90 1307 9471 500.018 500.141 4 0.01 0.034 0.085 0.002317
914	467501 76 1307 9471 500.018 500.141 4 1 1 4 4
915	467577 92 1308 9472 500.018 500.141 4 0.002 0.002 0.008 1.6e-05
916	467669 76 1308 9472 500.018 500.141 4 3 3 12 36
917	467745 76 1311 9475 500.018 500.141 4 1 1 4 4
918	467821 76 1311 9475 500.018 500.141 4 0 0 0 0
919	467897 90 1312 9476 500.018 500.141 4 0.01 0.034 0.085 0.002317
920	467987 76 1312 9476 500.018 500.141 4 1 1 4 4
921	468063 92 1313 9477 500.018 500.141 4 0.002 0.002 0.008 1.6e-05
922	468155 76 1313 9477 500.018 500.141 4 3 3 12 36
923	468231 76 1316 9480 500.018 500.141 4 1 1 4 4
924	468307 76 1316 9480 500.018 500.141 4 0 0 0 0
925	468383 90 1317 9481 500.018 500.141 4 0.01 0.034 0.085 0.002317
926	468473 76 1317 9481 500.018 500.141 4 1 1 4 4
927	468549 92 1318 9482 500.018 500.141 4 0.002 0.002 0.008 1.6e-05
928	468641 114 1318 9482 500.018 500.141 6 0 3 12 36
929	468755 76 1321 9485 500.018 500.141 4 1 1 4 4
930	468831 114 1321 9485 500.018 500.141 6 0 0 0 0
931	468945 90 1322 9486 500.018 500.141 4 0.01 0.034 0.085 0.002317
932	469035 76 1322 9486 500.018 500.141 4 1 1 4 4
933	469111 92 1323 9487 500.018 500.141 4 0.002 0.002 0.008 1.6e-05
934	469203 76 1323 9487 500.018 500.141 4 3 3 12 36
935	469279 76 1326 9490 500.018 500.141 4 1 1 4 4
936	469355 76 1326 9490 500.018 500.141 4 0 0 0 0
937	469431 90 1327 9491 500.018 500.141 4 0.01 0.034 0.085 0.002317
938	469521 76 1327 9491 500.018 500.141 4 1 1 4 4
939	469597 92 1328 9492 500.018 500.141 4 0.002 0.002 0.008 1.6e-05
940	469689 76 1328 9492 500.018 500.141 4 3 3 12 36
941	469765 76 1331 9495 500.018 500.141 4 1 1 4 4
942	469841 76 1331 9495 500.018 500.141 4 0 0 0 0
943	469917 90 1332 9496 500.018 500.141 4 0.01 0.034 0.085 0.002317
944	470007 76 1332 9496 500.018 500.141 4 1 1 4 4
945	470083 92 1333 9497 500.018 500.141 4 0.002 0.002 0.008 1.6e-05
946	470175 76 1333 9497 500.018 500.141 4 3 3 12 36
947	470251 76 1336 9500 500.018 500.141 4 1 1 4 4
948	470327 76 1336 9500 500.018 500.141 4 0 0 0 0
949	470403 90 1337 9501 500.018 500.141 4 0.01 0.034 0.085 0.002317
950	470493 76 1337 9501 500.018 500.141 4 1 1 4 4
951	470569 92 1338 9502 500.018 500.141 4 0.002 0.002 0.008 1.6e-05
952	470661 76 1338 9502 500.018 500.141 4 3 3 12 36
953	470737 76 1341 9505 500.018 500.141 4 1 1 4 4
954	470813 76 1341 9505 500.018 500.141 4 0 0 0 0
955	470889 90 1342 9506 500.018 500.141 4 0.01 0.034 0.085 0.002317
956	470979 76 1342 9506 500.018 500.141 4 1 1 4 4
957	471055 92 1343 9507 500.018 500.141 4 0.002 0.002 0.008 1.6e-05
958	471147 76 1343 9507 500.018 500.141 4 3 3 12 36
959	471223 76 1346 9510 500.018 500.141 4 1 1 4 4
960	471299 76 1346 9510 500.018 500.141 4 0 0 0 0
961	471375 90 1347 9511 500.018 500.141 4 0.01 0.034 0.085 0.002317
962	471465 76 1347 9511 500.018 500.141 4 1 1 4 4
963	471541 92 1348 9512 500.018 500.141 4 0.002 0.002 0.008 1.6e-05
964	471633 76 1351 9515 500.018 500.141 4 1 1 4 4
965	471709 90 1352 9516 500.018 500.141 4 0.01 0.034 0.085 0.002317
966	471799 76 1352 9516 500.018 500.141 4 1 1 4 4
967	471875 69 1354 9522 500.018 500.141 3 0.002 0.002 0.006 1.2e-05
968	471944 76 1354 9522 500.018 500.141 4 0 3 9 27
969	472020 57 1357 9525 500.018 500.141 3 1 1 3 3
970	472077 57 1357 9525 500.018 500.141 3 0 0 0 0
971	472134 67 1358 9526 500.018 500.141 3 0.01 0.031 0.051 0.001161
972	472201 57 1358 9526 500.018 500.141 3 1 1 3 3
973	472258 92 1359 9527 500.018 500.141 4 0.002 0.002 0.008 1.6e-05
974	472350 76 1359 9527 500.018 500.141 4 3 3 12 36
975	472426 76 1362 9530 500.018 500.141 4 1 1 4 4
976	472502 76 1362 9530 500.018 500.141 4 0 0 0 0
977	472578 90 1363 9531 500.018 500.141 4 0.01 0.034 0.085 0.002317
978	472668 76 1363 9531 500.018 500.141 4 1 1 4 4
979	472744 92 1364 9532 500.018 500.141 4 0.002 0.002 0.008 1.6e-05
980	472836 95 1364 9532 500.018 500.141 5 0 3 12 36
981	472931 76 1367 9535 500.018 500.141 4 1 1 4 4
982	473007 95 1367 9535 500.018 500.141 5 0 0 0 0
983	473102 90 1368 9536 500.018 500.141 4 0.01 0.034 0.085 0.002317
984	473192 76 1368 9536 500.018 500.141 4 1 1 4 4
985	473268 72 1688 8218 500.024 500.124 2 0.0033670033670034 0.0067340067340067 0.01010101010101 5.668355836706e-05
986	473340 72 1688 8218 500.024 500.124 2 0.0033670033670034 0.0067340067340067 0.01010101010101 5.668355836706e-05
987	473412 72 1703 8233 500.024 500.124 2 0.0033670033670034 0.0067340067340067 0.01010101010101 5.668355836706e-05
988	473484 36 4823 4823 500.076 500.076 1 0.0033670033670034 0.0033670033670034 0.0033670033670034 1.1336711673412e-05
989	473520 36 4823 4823 500.076 500.076 1 0.0033670033670034 0.0033670033670034 0.0033670033670034 1.1336711673412e-05
990	473556 36 4828 4828 500.076 500.076 1 0.0033670033670034 0.0033670033670034 0.0033670033670034 1.1336711673412e-05
991	473592 19 5159 5159 500.082 500.082 1 1 1 1 1
992	473611 19 5190 5190 500.082 500.082 1 0 0 0 0
993	473630 19 5190 5190 500.082 500.082 1 1 1 1 1
994	473649 20 5193 5193 500.082 500.082 1 13 13 13 169
995	473669 57 5193 7180 500.082 500.114 3 0 5 5 25
996	473726 19 5193 5193 500.082 500.082 1 1 1 1 1
997	473745 38 5193 7177 500.082 500.114 2 1 3 4 10
998	473783 25 5195 5195 500.082 500.082 1 500.114 500.114 500.114 250114.012996
999	473808 19 5195 5195 500.082 500.082 1 1 1 1 1
1000	473827 20 5195 5195 500.082 500.082 1 1 1 1 1
1001	473847 20 5195 5195 500.082 500.082 1 0 0 0 0
1002	473867 20 5586 5586 500.089 500.089 1 1 1 1 1
1003	473887 20 5617 5617 500.089 500.089 1 0 0 0 0
1004	473907 20 5617 5617 500.089 500.089 1 1 1 1 1
1005	473927 21 5620 5620 500.089 500.089 1 14 14 14 196
1006	473948 20 5620 5620 500.089 500.089 1 0 0 0 0
1007	473968 20 5620 5620 500.089 500.089 1 1 1 1 1
1008	473988 20 5620 5620 500.089 500.089 1 1 1 1 1
1009	474008 26 5622 5622 500.089 500.089 1 500.164 500.164 500.164 250164.026896
1010	474034 20 5622 5622 500.089 500.089 1 1 1 1 1
1011	474054 20 5622 5622 500.089 500.089 1 1 1 1 1
1012	474074 20 5622 5622 500.089 500.089 1 0 0 0 0
1013	474094 37 6626 6626 500.106 500.106 1 0.0033670033670034 0.0033670033670034 0.0033670033670034 1.1336711673412e-05
1014	474131 37 6626 6626 500.106 500.106 1 0.0033670033670034 0.0033670033670034 0.0033670033670034 1.1336711673412e-05
1015	474168 37 6653 6653 500.106 500.106 1 0.0033670033670034 0.0033670033670034 0.0033670033670034 1.1336711673412e-05
1016	474205 19 6869 6869 500.11 500.11 1 1 1 1 1
1017	474224 19 6900 6900 500.11 500.11 1 0 0 0 0
1018	474243 19 6900 6900 500.11 500.11 1 1 1 1 1
1019	474262 19 6903 6903 500.11 500.11 1 8 8 8 64
1020	474281 59 6903 9182 500.11 500.139 3 0 5 5 25
1021	474340 19 6903 6903 500.11 500.11 1 1 1 1 1
1022	474359 39 6903 9163 500.11 500.139 2 1 3 4 10
1023	474398 25 6905 6905 500.11 500.11 1 500.139 500.139 500.139 250139.019321
1024	474423 19 6905 6905 500.11 500.11 1 1 1 1 1
1025	474442 19 6905 6905 500.11 500.11 1 1 1 1 1
1026	474461 19 6905 6905 500.11 500.11 1 0 0 0 0
1027	474480 20 7180 7180 500.114 500.114 1 5 5 5 25
1028	474500 20 7181 7181 500.114 500.114 1 1 1 1 1
1029	474520 20 7181 7181 500.114 500.114 1 1 1 1 1
1030	474540 20 7181 7181 500.114 500.114 1 1 1 1 1
1031	474560 20 7182 7182 500.114 500.114 1 1 1 1 1
1032	474580 67 7353 9353 500.115 500.14 2 241.00787856669 1281.4594878857 1522.4673664524 1700223.2166234
1033	474647 45 7353 9353 500.115 500.14 2 1036 1052 2088 2180000
1034	474692 39 7353 9353 500.115 500.14 2 1 1 2 2
1035	474731 39 7353 9353 500.115 500.14 2 0 1 1 1
1036	474770 39 7353 9353 500.115 500.14 2 0 1 1 1
1037	474809 39 7353 9353 500.115 500.14 2 0 0 0 0
1038	474848 39 7353 9353 500.115 500.14 2 0 0 0 0
1039	474887 39 7353 9353 500.115 500.14 2 0 0 0 0
1040	474926 39 7353 9353 500.115 500.14 2 1 1 2 2
1041	474965 39 7353 9353 500.115 500.14 2 1 1 2 2
1042	475004 67 7353 9353 500.115 500.14 2 241.00787856669 1281.4594878857 1522.4673664524 1700223.2166234
1043	475071 39 7353 9353 500.115 500.14 2 1 1 2 2
1044	475110 39 7353 9353 500.115 500.14 2 0 1 1 1
1045	475149 39 7353 9353 500.115 500.14 2 0 1 1 1
1046	475188 39 7353 9353 500.115 500.14 2 0 0 0 0
1047	475227 39 7353 9353 500.115 500.14 2 0 0 0 0
1048	475266 39 7353 9353 500.115 500.14 2 0 0 0 0
1049	475305 39 7353 9353 500.115 500.14 2 0 0 0 0
1050	475344 39 7353 9353 500.115 500.14 2 1 1 2 2
1051	475383 39 7353 9353 500.115 500.14 2 0 0 0 0
1052	475422 39 7353 9353 500.115 500.14 2 0 0 0 0
1053	475461 39 7353 9353 500.115 500.14 2 1 1 2 2
1054	475500 48 7519 9517 500.116 500.141 2 0.002 0.002 0.004 8e-06
1055	475548 40 7524 9520 500.116 500.141 2 1 1 2 2
1056	475588 40 7524 9520 500.116 500.141 2 0 0 0 0
1057	475628 48 7526 9521 500.116 500.141 2 0.031 0.034 0.065 0.002117
1058	475676 40 7526 9521 500.116 500.141 2 1 1 2 2
1059	475716 22 7660 7660 500.117 500.117 1 0.1 0.1 0.1 0.01
1060	475738 22 7664 7664 500.117 500.117 1 0.1 0.1 0.1 0.01
1061	475760 22 7672 7672 500.117 500.117 1 0.1 0.1 0.1 0.01
1062	475782 22 7676 7676 500.117 500.117 1 0.1 0.1 0.1 0.01
1063	475804 22 7680 7680 500.117 500.117 1 0.1 0.1 0.1 0.01
1064	475826 22 7686 7686 500.117 500.117 1 0.1 0.1 0.1 0.01
1065	475848 22 7690 7690 500.117 500.117 1 0.1 0.1 0.1 0.01
1066	475870 22 7710 7710 500.117 500.117 1 0.1 0.1 0.1 0.01
1067	475892 22 7712 7712 500.117 500.117 1 0.1 0.1 0.1 0.01
1068	475914 22 7714 7714 500.117 500.117 1 0.1 0.1 0.1 0.01
1069	475936 20 8264 8264 500.125 500.125 1 1 1 1 1
1070	475956 20 8295 8295 500.125 500.125 1 0 0 0 0
1071	475976 20 8295 8295 500.125 500.125 1 1 1 1 1
1072	475996 21 8298 8298 500.125 500.125 1 13 13 13 169
1073	476017 20 8298 8298 500.125 500.125 1 0 0 0 0
1074	476037 20 8298 8298 500.125 500.125 1 1 1 1 1
1075	476057 20 8298 8298 500.125 500.125 1 1 1 1 1
1076	476077 26 8300 8300 500.125 500.125 1 500.172 500.172 500.172 250172.029584
1077	476103 20 8300 8300 500.125 500.125 1 2 2 2 4
1078	476123 20 8300 8300 500.125 500.125 1 1 1 1 1
1079	476143 20 8300 8300 500.125 500.125 1 0 0 0 0
1080	476163 20 8631 8631 500.131 500.131 1 1 1 1 1
1081	476183 20 8662 8662 500.131 500.131 1 0 0 0 0
1082	476203 20 8662 8662 500.131 500.131 1 1 1 1 1
1083	476223 21 8665 8665 500.131 500.131 1 13 13 13 169
1084	476244 20 8665 8665 500.131 500.131 1 0 0 0 0
1085	476264 20 8665 8665 500.131 500.131 1 1 1 1 1
1086	476284 20 8665 8665 500.131 500.131 1 1 1 1 1
1087	476304 25 8667 8667 500.131 500.131 1 500.22 500.22 500.22 250220.0484
1088	476329 20 8667 8667 500.131 500.131 1 0 0 0 0
1089	476349 20 8667 8667 500.131 500.131 1 1 1 1 1
1090	476369 20 8667 8667 500.131 500.131 1 0 0 0 0
1091	476389 20 9182 9182 500.139 500.139 1 5 5 5 25
1092	476409 20 9183 9183 500.139 500.139 1 1 1 1 1
1093	476429 20 9183 9183 500.139 500.139 1 1 1 1 1
1094	476449 20 9183 9183 500.139 500.139 1 1 1 1 1
1095	476469 20 9184 9184 500.139 500.139 1 1 1 1 1
1096	476489 36 10153 10153 500.152 500.152 1 0.01010101010101 0.01010101010101 0.01010101010101 0.00010203040506071
1097	476525 36 10153 10153 500.152 500.152 1 0.01010101010101 0.01010101010101 0.01010101010101 0.00010203040506071
1098	476561 36 10171 10171 500.152 500.152 1 0.01010101010101 0.01010101010101 0.01010101010101 0.00010203040506071
60	476597 66 10262 10322 500.154 500.155 2 1644.7492717458 1644.7492717458 3289.4985434915 5410400.3338165
61	476663 40 10262 10322 500.154 500.155 2 73 73 146 10658
62	476703 66 10263 10323 500.154 500.155 2 854.14578694981 854.14578694981 1708.2915738996 1459130.0507282
63	476769 40 10263 10323 500.154 500.155 2 69 69 138 9522
64	476809 66 10264 10324 500.154 500.155 2 1567.4358264698 1567.4358264698 3134.8716529396 4913710.1402021
65	476875 40 10264 10324 500.154 500.155 2 69 69 138 9522
66	476915 66 10265 10325 500.154 500.155 2 860.77475181646 860.77475181646 1721.5495036329 1481866.3467294
67	476981 40 10265 10325 500.154 500.155 2 85 85 170 14450
68	477021 66 10266 10326 500.154 500.155 2 1182.3608216489 1182.3608216489 2364.7216432979 2795954.2251408
69	477087 40 10266 10326 500.154 500.155 2 81 81 162 13122
70	477127 66 10267 10327 500.154 500.155 2 729.17339186566 729.17339186566 1458.3467837313 1063387.6708097
71	477193 40 10267 10327 500.154 500.155 2 77 77 154 11858
72	477233 66 10268 10328 500.154 500.155 2 1885.5579692922 1885.5579692922 3771.1159385844 7110657.7111225
73	477299 40 10268 10328 500.154 500.155 2 65 65 130 8450
74	477339 66 10269 10329 500.154 500.155 2 626.67196174734 626.67196174734 1253.3439234947 785435.49528052
75	477405 40 10269 10329 500.154 500.155 2 77 77 154 11858
76	477445 66 10270 10330 500.154 500.155 2 1989.9810315038 1989.9810315038 3979.9620630075 7920049.0114896
77	477511 40 10270 10330 500.154 500.155 2 65 65 130 8450
78	477551 66 10271 10331 500.154 500.155 2 1233.0678737107 1233.0678737107 2466.1357474214 3040912.7623549
79	477617 40 10271 10331 500.154 500.155 2 85 85 170 14450
80	477657 66 10272 10332 500.154 500.155 2 1996.5327165956 1996.5327165956 3993.0654331912 7972285.7768733
81	477723 40 10272 10332 500.154 500.155 2 81 81 162 13122
82	477763 64 10273 10333 500.154 500.155 2 682.3467201435 682.3467201435 1364.693440287 931194.09298118
83	477827 40 10273 10333 500.154 500.155 2 85 85 170 14450
84	477867 66 10274 10334 500.154 500.155 2 1260.1827690603 1260.1827690603 2520.3655381206 3176121.222873
85	477933 40 10274 10334 500.154 500.155 2 65 65 130 8450
86	477973 66 10275 10335 500.154 500.155 2 1903.9645105794 1903.9645105794 3807.9290211587 7250161.7150915
87	478039 40 10275 10335 500.154 500.155 2 81 81 162 13122
90	478079 66 10276 10336 500.154 500.155 2 838.43899500439 838.43899500439 1676.8779900088 1405959.896688
91	478145 40 10276 10336 500.154 500.155 2 65 65 130 8450
92	478185 66 10277 10337 500.154 500.155 2 1760.5083970209 1760.5083970209 3521.0167940417 6198779.631962
93	478251 40 10277 10337 500.154 500.155 2 81 81 162 13122
94	478291 66 10278 10338 500.154 500.155 2 1285.6554268831 1285.6554268831 2571.3108537663 3305819.7533482
95	478357 40 10278 10338 500.154 500.155 2 81 81 162 13122
96	478397 66 10279 10339 500.154 500.155 2 573.89374357793 573.89374357793 1147.7874871559 658708.05783577
97	478463 40 10279 10339 500.154 500.155 2 85 85 170 14450
98	478503 66 10280 10340 500.154 500.155 2 1006.2518673181 1006.2518673181 2012.5037346361 2025085.6409621
99	478569 40 10280 10340 500.154 500.155 2 81 81 162 13122
100	478609 68 10281 10341 500.154 500.155 2 875.97808288117 875.97808288117 1751.9561657623 1534675.2033764
101	478677 42 10281 10341 500.154 500.155 2 81 81 162 13122
102	478719 68 10282 10342 500.154 500.155 2 1121.6454982224 1121.6454982224 2243.2909964449 2516177.2473653
103	478787 42 10282 10342 500.154 500.155 2 77 77 154 11858
104	478829 66 10283 10343 500.154 500.155 2 1284.039014678 1284.039014678 2568.0780293561 3297512.3824307
105	478895 42 10283 10343 500.154 500.155 2 77 77 154 11858
106	478937 68 10284 10344 500.154 500.155 2 913.00678053711 913.00678053711 1826.0135610742 1667162.7626135
107	479005 42 10284 10344 500.154 500.155 2 77 77 154 11858
108	479047 64 10285 10345 500.154 500.155 2 1030.12559134 1030.12559134 2060.25118268 2122317.4678673
109	479111 42 10285 10345 500.154 500.155 2 65 65 130 8450
110	479153 68 10286 10346 500.154 500.155 2 949.77756285476 949.77756285476 1899.5551257095 1804154.8378046
111	479221 42 10286 10346 500.154 500.155 2 85 85 170 14450
112	479263 68 10287 10347 500.154 500.155 2 1657.0258657241 1657.0258657241 3314.0517314483 5491469.4393576
113	479331 42 10287 10347 500.154 500.155 2 69 69 138 9522
114	479373 68 10288 10348 500.154 500.155 2 1963.8062080292 1963.8062080292 3927.6124160583 7713069.6453877
115	479441 42 10288 10348 500.154 500.155 2 85 85 170 14450
116	479483 68 10289 10349 500.154 500.155 2 1723.6296114773 1723.6296114773 3447.2592229547 5941798.075123
117	479551 42 10289 10349 500.154 500.155 2 65 65 130 8450
118	479593 68 10290 10350 500.154 500.155 2 1426.3367773289 1426.3367773289 2852.6735546577 4068873.2047217
119	479661 42 10290 10350 500.154 500.155 2 65 65 130 8450
120	479703 68 10291 10351 500.154 500.155 2 691.71832600641 691.71832600641 1383.4366520128 956948.48506622
121	479771 42 10291 10351 500.154 500.155 2 81 81 162 13122

